geometry optimzed in LAMMPS
_audit_creation_date              2020-11-30 
_audit_creation_method            'lammps2cif' 
_symmetry_space_group_name_H-M    'P1' 
_symmetry_Int_Tables_number       1 
_symmetry_cell_setting            triclinic 
loop_ 
_symmetry_equiv_pos_as_xyz 
  x,y,z 
_cell_length_a                    48.18524476 
_cell_length_b                    47.67955884794237 
_cell_length_c                    35.17789402631248 
_cell_angle_alpha                 89.0495132360919 
_cell_angle_beta                  91.00071899779093 
_cell_angle_gamma                 117.58507186343815 
loop_ 
_atom_site_label 
_atom_site_type_symbol 
_atom_site_fract_x 
_atom_site_fract_y 
_atom_site_fract_z 
_atom_site_charge 
O1          O  0.16626400  0.06241009  0.76624794    -0.81800
O2          O  0.13093218  0.02373681  0.59797692    -0.66500
O3          O  0.16305899  0.03296087  0.69906211    -1.13100
C4          C  0.22789909  0.13691584  0.65435326     1.05100
O5          O  0.17872666  0.04360870  0.57436111    -0.79700
O6          O  0.23496552  0.07931861  0.61498129    -0.67300
Ni7        Ni  0.13527687  0.02588241  0.74051659     1.34900
C8          C  0.24357414  0.07140381  0.64606124     0.83800
O9          O  0.11675609  0.48515300  0.65810001    -0.80300
O10         O  0.10309109  0.48762009  0.71820636    -0.90500
C11         C  0.14908156  0.02614678  0.57099139     0.83400
O12         O  0.11533824  0.05060440  0.72177349    -0.68700
O13         O  0.21880983  0.12622958  0.62077208    -0.88000
C14         C  0.10407681  0.05117699  0.68888128     0.84200
C15         C  0.09969233  0.47295481  0.68699730     1.05800
H16         H  0.16346284  0.08394250  0.64473930     0.37600
O17         O  0.17458805  0.07153381  0.64395815    -1.10700
O18         O  0.22658210  0.06419396  0.67581850    -0.67300
Ni19       Ni  0.19464439  0.07578807  0.69232988     1.26300
O20         O  0.11217266  0.04076117  0.65997374    -0.67600
O21         O  0.22302726  0.11944705  0.68401138    -0.79900
C22         C  0.19406404  0.06655623  0.77090299     0.83600
O23         O  0.21215549  0.07640614  0.74244548    -0.67000
Ni24       Ni  0.19900662  0.08472881  0.59936896     1.27400
Ni25       Ni  0.14514900  0.02830735  0.64953511     1.26100
H26         H  0.17265786  0.01917518  0.70195907     0.38100
O27         O  0.24778046  0.00181489  0.10244279    -0.81800
O28         O  0.25252040  0.03552521  0.92916175    -0.66500
O29         O  0.22649013  0.00909053  0.03124462    -1.13100
C30         C  0.24398867  0.42281380  0.99362667     1.05100
O31         O  0.21584051  0.48830391  0.91140761    -0.79700
O32         O  0.18971934  0.43060214  0.95199941    -0.67300
Ni33       Ni  0.24796390  0.03647158  0.07299898     1.34900
C34         C  0.17472177  0.42390532  0.98309255     0.83800
O35         O  0.23797563  0.06300705  0.98598768    -0.80300
O36         O  0.24892672  0.07315697  0.04804408    -0.90500
C37         C  0.23220703  0.01809844  0.90486704     0.83400
O38         O  0.29103594  0.05116576  0.05741047    -0.68700
O39         O  0.24604497  0.43409247  0.95981945    -0.88000
C40         C  0.30360054  0.06023691  0.02476515     0.84200
C41         C  0.24545735  0.08155499  0.01440304     1.05800
H42         H  0.26856384  0.49353615  0.98152896     0.37600
O43         O  0.24642464  0.48728302  0.98006240    -1.10700
O44         O  0.18573205  0.44256562  0.01179850    -0.67300
Ni45       Ni  0.22966705  0.47020579  0.02846156     1.26300
O46         O  0.28696680  0.05075542  0.99420692    -0.67600
O47         O  0.23654848  0.43370107  0.02275666    -0.79900
C48         C  0.22400820  0.47547345  0.10721406     0.83600
O49         O  0.21344701  0.45689249  0.07900991    -0.67000
Ni50       Ni  0.23117505  0.46145201  0.93677909     1.27400
Ni51       Ni  0.24205692  0.02487059  0.98157574     1.26100
H52         H  0.20464576  0.00412017  0.03201533     0.38100
O53         O  0.10154362  0.42421608  0.43436931    -0.81800
O54         O  0.14247260  0.42421320  0.26590583    -0.66500
O55         O  0.13189861  0.44642540  0.36649948    -1.13100
C56         C  0.03285301  0.42792563  0.31253116     1.05100
O57         O  0.12905846  0.46009979  0.24414181    -0.79700
O58         O  0.09357401  0.48449534  0.27933215    -0.67300
Ni59       Ni  0.13672056  0.42399740  0.40987376     1.34900
C60         C  0.09957110  0.49844259  0.31120122     0.83800
O61         O  0.17846738  0.43843844  0.32854764    -0.80300
O62         O  0.17303926  0.42278225  0.38964869    -0.90500
C63         C  0.14509417  0.44512597  0.24118322     0.83400
O64         O  0.11049731  0.38188507  0.39177610    -0.68700
O65         O  0.04466348  0.42726165  0.28044582    -0.88000
C66         C  0.10915873  0.37001765  0.35920502     0.84200
C67         C  0.18799563  0.42987988  0.35846416     1.05800
H68         H  0.08154227  0.40452756  0.30897907     0.37600
O69         O  0.09555138  0.42699591  0.30913812    -1.10700
O70         O  0.10603942  0.48645752  0.34073924    -0.67300
Ni71       Ni  0.09051205  0.44228710  0.35667431     1.26300
O72         O  0.12024246  0.38751991  0.32952717    -0.67600
O73         O  0.04815486  0.43502084  0.34432685    -0.79900
C74         C  0.09809590  0.44898408  0.43598536     0.83600
O75         O  0.08945065  0.45846363  0.40621900    -0.67000
Ni76       Ni  0.08689315  0.44332310  0.26364609     1.27400
Ni77       Ni  0.13713203  0.43288851  0.31764286     1.26100
H78         H  0.14661785  0.46856904  0.36914878     0.38100
O79         O  0.38466875  0.33577817  0.55949234    -0.81800
O80         O  0.35746043  0.28722385  0.73161479    -0.66500
O81         O  0.37152291  0.32983475  0.63613620    -1.13100
C82         C  0.47675272  0.37483883  0.68105527     1.05100
O83         O  0.38361928  0.33292893  0.76079268    -0.79700
O84         O  0.42073574  0.38821961  0.72391073    -0.67300
Ni85       Ni  0.35581793  0.30325337  0.59263359     1.34900
C86         C  0.41910664  0.40045662  0.69220892     0.83800
O87         O  0.32010523  0.28711872  0.67561011    -0.80300
O88         O  0.32252411  0.26868534  0.61902562    -0.90500
C89         C  0.36239575  0.30419696  0.76066139     0.83400
O90         O  0.38415257  0.28612241  0.60372789    -0.68700
O91         O  0.46508144  0.36870387  0.71445220    -0.88000
C92         C  0.38369039  0.27102765  0.63423037     0.84200
C93         C  0.30815966  0.26697326  0.64962831     1.05800
H94         H  0.41587213  0.31308923  0.68877800     0.37600
O95         O  0.40771779  0.32811730  0.68961807    -1.10700
O96         O  0.41587803  0.38684419  0.66074854    -0.67300
Ni97       Ni  0.41623277  0.34985102  0.64221503     1.26300
O98         O  0.36861339  0.27206136  0.66333016    -0.67600
O99         O  0.46028865  0.36835335  0.65060869    -0.79900
C100        C  0.40705712  0.36346445  0.56414970     0.83600
O101        O  0.42326288  0.37213386  0.59457429    -0.67000
Ni102      Ni  0.42385732  0.35043920  0.73570848     1.27400
Ni103      Ni  0.36393450  0.30748420  0.68329494     1.26100
H104        H  0.36343961  0.34498026  0.63652664     0.38100
O105        O  0.30533603  0.27659344  0.09828293    -0.81800
O106        O  0.29879099  0.25560677  0.92018924    -0.66500
O107        O  0.29959641  0.28325472  0.02090709    -1.13100
C108        C  0.19162999  0.22414130  0.01074612     1.05100
O109        O  0.26029814  0.26468084  0.89948050    -0.79700
O110        O  0.24470502  0.29310486  0.95421183    -0.67300
Ni111      Ni  0.32772920  0.27645668  0.05422937     1.34900
C112        C  0.24753088  0.30457089  0.98712792     0.83800
O113        O  0.34213475  0.29746976  0.96372399    -0.80300
O114        O  0.35590182  0.27911360  0.01484176    -0.90500
C115        C  0.28511015  0.26238260  0.89356242     0.83400
O116        O  0.30263213  0.23172058  0.04827079    -0.68700
O117        O  0.19684271  0.23496588  0.97671119    -0.88000
C118        C  0.29763561  0.21778243  0.01642878     0.84200
C119        C  0.36235666  0.29400654  0.98325115     1.05800
H120        H  0.25110603  0.22093652  0.97626280     0.37600
O121        O  0.25632514  0.24306948  0.97712856    -1.10700
O122        O  0.24701830  0.28946816  0.01733174    -0.67300
Ni123      Ni  0.25617090  0.25520625  0.02898457     1.26300
O124        O  0.30600947  0.23362196  0.98540621    -0.67600
O125        O  0.21292527  0.22702035  0.03447380    -0.79900
C126        C  0.27943839  0.27617053  0.10541942     0.83600
O127        O  0.25732197  0.26809887  0.08097111    -0.67000
Ni128      Ni  0.23027749  0.25002374  0.94066356     1.27400
Ni129      Ni  0.29936185  0.26953513  0.97023331     1.26100
H130        H  0.30417961  0.30524104  0.02110591     0.38100
O131        O  0.34481119  0.39427452  0.43627775    -0.81800
O132        O  0.29135188  0.34403284  0.27163822    -0.66500
O133        O  0.33435378  0.36399032  0.36689863    -1.13100
C134        C  0.38617921  0.46461525  0.30735667     1.05100
O135        O  0.33643195  0.36579120  0.24131062    -0.79700
O136        O  0.39344952  0.40897614  0.27124177    -0.67300
Ni137      Ni  0.31051942  0.35930381  0.41104601     1.34900
C138        C  0.40380200  0.40065288  0.30047161     0.83800
O139        O  0.28800108  0.31167808  0.33520088    -0.80300
O140        O  0.27431311  0.32261494  0.39121714    -0.90500
C141        C  0.30753582  0.34562212  0.24292531     0.83400
O142        O  0.29547552  0.38745107  0.39130185    -0.68700
O143        O  0.37164595  0.45153017  0.27665820    -0.88000
C144        C  0.27898885  0.38303853  0.36121150     0.84200
C145        C  0.26948135  0.30445093  0.36283483     1.05800
H146        H  0.32372808  0.40831748  0.31103145     0.37600
O147        O  0.33594689  0.39716627  0.30867940    -1.10700
O148        O  0.38916052  0.39262512  0.33150283    -0.67300
Ni149      Ni  0.36154994  0.40643201  0.35281474     1.26300
O150        O  0.27855568  0.36419999  0.33563928    -0.67600
O151        O  0.38756911  0.44922164  0.33685468    -0.79900
C152        C  0.37423926  0.40550669  0.43154908     0.83600
O153        O  0.38603079  0.41287263  0.39854950    -0.67000
Ni154      Ni  0.35418060  0.40867985  0.26023986     1.27400
Ni155      Ni  0.31154089  0.35400681  0.32033407     1.26100
H156        H  0.34556758  0.35170883  0.36982302     0.38100
O157        O  0.43120385  0.09499057  0.56364903    -0.81800
O158        O  0.43622498  0.14065290  0.73318445    -0.66500
O159        O  0.45359059  0.12694572  0.63178349    -1.13100
C160        C  0.43513352  0.02766142  0.68754927     1.05100
O161        O  0.47176103  0.12606783  0.75272432    -0.79700
O162        O  0.49249387  0.08686578  0.71853444    -0.67300
Ni163      Ni  0.42786653  0.12855426  0.59046358     1.34900
C164        C  0.00626729  0.09359257  0.68659420     0.83800
O165        O  0.44669282  0.17484649  0.66906141    -0.80300
O166        O  0.42374547  0.16367963  0.61153977    -0.90500
C167        C  0.45676104  0.14187642  0.75737996     0.83400
O168        O  0.38814752  0.09922839  0.61259460    -0.68700
O169        O  0.43457570  0.03974972  0.71957012    -0.88000
C170        C  0.37747121  0.10177267  0.64472318     0.84200
C171        C  0.43314033  0.18096363  0.64108110     1.05800
H172        H  0.41409420  0.07766699  0.69107707     0.37600
O173        O  0.43634061  0.09170420  0.69040499    -1.10700
O174        O  0.49464745  0.10142999  0.65782398    -0.67300
Ni175      Ni  0.45047787  0.08576178  0.64290802     1.26300
O176        O  0.39632384  0.11638825  0.67222555    -0.67600
O177        O  0.44361385  0.04355074  0.65618809    -0.79900
C178        C  0.45550518  0.09080761  0.56303508     0.83600
O179        O  0.46550249  0.08361976  0.59346197    -0.67000
Ni180      Ni  0.45294532  0.08289395  0.73528017     1.27400
Ni181      Ni  0.44200647  0.13357195  0.68113443     1.26100
H182        H  0.47516136  0.14206828  0.62717821     0.38100
O183        O  0.01803764  0.23530506  0.90216902    -0.81800
O184        O  0.03630085  0.24490150  0.07750989    -0.66500
O185        O  0.01514426  0.21377742  0.97719710    -1.13100
C186        C  0.44203115  0.25121048  0.99287539     1.05100
O187        O  0.48769703  0.21401317  0.09470243    -0.79700
O188        O  0.43476411  0.18985766  0.04668888    -0.67300
Ni189      Ni  0.04587250  0.22930473  0.93804475     1.34900
C190        C  0.43006706  0.17227046  0.01790859     0.83800
O191        O  0.05948913  0.21822582  0.03092344    -0.80300
O192        O  0.07438373  0.22142191  0.97002685    -0.90500
C193        C  0.01712518  0.22615725  0.10151805     0.83400
O194        O  0.06688342  0.27425024  0.95011043    -0.68700
O195        O  0.44650538  0.25047873  0.02898570    -0.88000
C196        C  0.07236486  0.28945605  0.98124331     0.84200
C197        C  0.07619046  0.21542107  0.00530048     1.05800
H198        H  0.00477892  0.26498216  0.01716150     0.37600
O199        O  0.49557868  0.24207750  0.02067440    -1.10700
O200        O  0.44942490  0.18131961  0.99018558    -0.67300
Ni201      Ni  0.48128521  0.22344393  0.97236393     1.26300
O202        O  0.05941479  0.27491438  0.01214882    -0.67600
O203        O  0.45030789  0.23719789  0.96851531    -0.79900
C204        C  0.49004368  0.21371996  0.89657918     0.83600
O205        O  0.47026645  0.20547931  0.92310960    -0.67000
Ni206      Ni  0.46672602  0.23172438  0.06072800     1.27400
Ni207      Ni  0.02809526  0.23130123  0.02649195     1.26100
H208        H  0.00696923  0.19108912  0.97915541     0.38100
O209        O  0.07017169  0.16247008  0.23119640    -0.81800
O210        O  0.02651418  0.11827644  0.39686379    -0.66500
O211        O  0.03946755  0.15564202  0.29758611    -1.13100
C212        C  0.13989437  0.21950441  0.35098868     1.05100
O213        O  0.04362699  0.16584079  0.42171600    -0.79700
O214        O  0.08137787  0.22472197  0.38678505    -0.67300
Ni215      Ni  0.03393917  0.12985158  0.25406334     1.34900
C216        C  0.07597337  0.23481046  0.35521692     0.83800
O217        O  0.49104644  0.10625288  0.33386477    -0.80300
O218        O  0.49691835  0.09570165  0.27357791    -0.90500
C219        C  0.02801383  0.13573099  0.42465710     0.83400
O220        O  0.05898199  0.11055738  0.27198467    -0.68700
O221        O  0.12735486  0.20839426  0.38320653    -0.88000
C222        C  0.05965082  0.09825702  0.30404349     0.84200
C223        C  0.48070362  0.09044974  0.30352006     1.05800
H224        H  0.08795639  0.15408514  0.35431028     0.37600
O225        O  0.07529001  0.16493141  0.35478266    -1.10700
O226        O  0.06882741  0.21810212  0.32516567    -0.67300
Ni227      Ni  0.08156739  0.18730654  0.30773132     1.26300
O228        O  0.04716287  0.10347213  0.33328605    -0.67600
O229        O  0.12427634  0.21595787  0.32002274    -0.79900
C230        C  0.07366069  0.19040464  0.22940769     0.83600
O231        O  0.08409218  0.20756179  0.25871534    -0.67000
Ni232      Ni  0.08548552  0.18745146  0.40096481     1.27400
Ni233      Ni  0.03300361  0.13506932  0.34587752     1.26100
H234        H  0.02586907  0.16541561  0.29498053     0.38100
C235        C  0.03027616  0.21683600  0.13560636    -0.07100
C236        C  0.06085062  0.23788707  0.14819416    -0.18200
C237        C  0.07596523  0.22992633  0.17784631     0.10100
C238        C  0.06030621  0.20025512  0.19629391    -0.07000
C239        C  0.02980579  0.17917319  0.18388444    -0.18200
C240        C  0.01482208  0.18688070  0.15387466     0.10200
S241        S  0.11572621  0.25809126  0.18937121    -0.33200
S242        S  0.47681288  0.15677792  0.13968600    -0.33200
H243        H  0.48422258  0.15940123  0.10083686     0.28200
H244        H  0.12542202  0.23563169  0.20104877     0.28200
H245        H  0.07348244  0.26072890  0.13430500     0.18800
H246        H  0.01741178  0.15627295  0.19775391     0.18800
C247        C  0.46377858  0.16148896  0.79180192    -0.07100
C248        C  0.45819442  0.14578080  0.82695363    -0.18200
C249        C  0.46683378  0.16244860  0.86101724     0.10100
C250        C  0.48089549  0.19590519  0.86050807    -0.07000
C251        C  0.48653319  0.21184268  0.82530594    -0.18200
C252        C  0.47832253  0.19499904  0.79093861     0.10200
S253        S  0.46126048  0.13956016  0.90414224    -0.33200
S254        S  0.98864528  0.21774476  0.74715374    -0.33200
H255        H  0.49426373  0.19618289  0.72639210     0.28200
H256        H  0.49047948  0.16031018  0.92009748     0.28200
H257        H  0.44779188  0.12016973  0.82784268     0.18800
H258        H  0.99801845  0.23762500  0.82451892     0.18800
C259        C  0.47407316  0.09727668  0.52740273    -0.07100
C260        C  0.00618461  0.11862819  0.52954686    -0.18200
C261        C  0.02443784  0.13053000  0.49679160     0.10100
C262        C  0.01052348  0.12115043  0.46034513    -0.07000
C263        C  0.47891736  0.09792809  0.45821708    -0.18200
C264        C  0.46058352  0.08625909  0.49114808     0.10200
S265        S  0.06536391  0.15781934  0.50360667    -0.33200
S266        S  0.42017587  0.05739960  0.48509780    -0.33200
H267        H  0.41765457  0.04227441  0.52047945     0.28200
H268        H  0.07588104  0.14881729  0.47120884     0.28200
H269        H  0.01704795  0.12703886  0.55710532     0.18800
H270        H  0.46803657  0.08985384  0.43061065     0.18800
C271        C  0.17442260  0.23757214  0.35085845    -0.07100
C272        C  0.19041776  0.23895709  0.38537965    -0.18200
C273        C  0.22233400  0.25852200  0.38943941     0.10100
C274        C  0.23891255  0.27713567  0.35838082    -0.07000
C275        C  0.22396447  0.27365923  0.32292750    -0.18200
C276        C  0.19189444  0.25410509  0.31857133     0.10200
S277        S  0.24032682  0.25934107  0.43511927    -0.33200
S278        S  0.17445366  0.25192614  0.27196918    -0.33200
H279        H  0.20135735  0.27436027  0.25328125     0.28200
H280        H  0.27044640  0.26838139  0.42095788     0.28200
H281        H  0.17797776  0.22540318  0.41008653     0.18800
H282        H  0.23713492  0.28801573  0.29907802     0.18800
C283        C  0.44964192  0.06273830  0.30399282    -0.07100
C284        C  0.43756901  0.04849019  0.33923590    -0.18200
C285        C  0.41450677  0.01702870  0.34142398     0.10100
C286        C  0.40385751  0.49936201  0.30759076    -0.07000
C287        C  0.41241382  0.01538823  0.27230500    -0.18200
C288        C  0.43461994  0.04698717  0.27021432     0.10200
S289        S  0.39969864  0.49951108  0.38773014    -0.33200
S290        S  0.44342829  0.06515894  0.22354315    -0.33200
H291        H  0.45081435  0.09565693  0.23637108     0.28200
H292        H  0.41922275  0.52593764  0.40963823     0.28200
H293        H  0.44776279  0.06119141  0.36521792     0.18800
H294        H  0.40291054  0.50277810  0.24610886     0.18800
C295        C  0.29335768  0.32266158  0.21189261    -0.07100
C296        C  0.27619619  0.32873051  0.18322361    -0.18200
C297        C  0.26839913  0.31180420  0.14903213     0.10100
C298        C  0.27721655  0.28763089  0.14370107    -0.07000
C299        C  0.29162156  0.27969069  0.17419647    -0.18200
C300        C  0.29984302  0.29690709  0.20796870     0.10200
S301        S  0.25064237  0.32478339  0.11200512    -0.33200
S302        S  0.32064588  0.28628021  0.24378833    -0.33200
H303        H  0.31115686  0.29766543  0.27489673     0.28200
H304        H  0.27268301  0.32799360  0.08434578     0.28200
H305        H  0.27098619  0.34838908  0.18625208     0.18800
H306        H  0.29845681  0.26119254  0.17071124     0.18800
C307        C  0.39238407  0.30179125  0.96679750    -0.07100
C308        C  0.39104368  0.27996770  0.93985874    -0.18200
C309        C  0.40859529  0.26373661  0.94583019     0.10100
C310        C  0.42815127  0.27100351  0.97862594    -0.07000
C311        C  0.43508079  0.29870477  0.99876723    -0.18200
C312        C  0.41809998  0.31511702  0.99165235     0.10200
S313        S  0.40246551  0.23187241  0.91419811    -0.33200
S314        S  0.42486862  0.34831540  0.02098797    -0.33200
H315        H  0.40488546  0.35694827  0.99979244     0.28200
H316        H  0.38680624  0.23994564  0.88527185     0.28200
H317        H  0.37211117  0.27118515  0.91906751     0.18800
H318        H  0.45240641  0.30652266  0.02151827     0.18800
C319        C  0.09997048  0.20604735  0.01696439    -0.07100
C320        C  0.11944622  0.22128573  0.04806941    -0.18200
C321        C  0.14913903  0.22311728  0.05110145     0.10100
C322        C  0.15898751  0.20950804  0.02238878    -0.07000
C323        C  0.13697185  0.18887778  0.99629429    -0.18200
C324        C  0.10722002  0.18667259  0.99364747     0.10200
S325        S  0.17458437  0.24651894  0.08889065    -0.33200
S326        S  0.08045362  0.16085375  0.95823353    -0.33200
H327        H  0.05313757  0.15696294  0.97655471     0.28200
H328        H  0.19796223  0.26733426  0.06438820     0.28200
H329        H  0.11315999  0.23487026  0.06736468     0.18800
H330        H  0.14405883  0.17715590  0.97525717     0.18800
C331        C  0.34123570  0.29155465  0.79329243    -0.07100
C332        C  0.32527370  0.30812422  0.80475101    -0.18200
C333        C  0.30431150  0.29731365  0.83497037     0.10100
C334        C  0.30030542  0.27013402  0.85588690    -0.07000
C335        C  0.31573984  0.25307452  0.84371841    -0.18200
C336        C  0.33570388  0.26316479  0.81235251     0.10200
S337        S  0.28480255  0.32030097  0.84656711    -0.33200
S338        S  0.35426762  0.23948758  0.79917541    -0.33200
H339        H  0.38227394  0.26477571  0.78632360     0.28200
H340        H  0.25474469  0.29444375  0.84282199     0.28200
H341        H  0.32883932  0.32950828  0.78961271     0.18800
H342        H  0.31291825  0.23219417  0.85945833     0.18800
C343        C  0.42790157  0.49412156  0.68729644    -0.07100
C344        C  0.44479088  0.48527612  0.66244690    -0.18200
C345        C  0.44282532  0.45526927  0.66439816     0.10100
C346        C  0.42254371  0.43273929  0.69083627    -0.07000
C347        C  0.40494668  0.44109112  0.71516035    -0.18200
C348        C  0.40729173  0.47156388  0.71366738     0.10200
S349        S  0.46882600  0.44818314  0.63438777    -0.33200
S350        S  0.38291735  0.48068918  0.74441175    -0.33200
H351        H  0.37232994  0.95305778  0.76769458     0.28200
H352        H  0.47788438  0.43347040  0.66346763     0.28200
H353        H  0.46115763  0.50247403  0.64275025     0.18800
H354        H  0.38909542  0.42355387  0.73489680     0.18800
C355        C  0.40010816  0.25089936  0.63666145    -0.07100
C356        C  0.39725443  0.23328599  0.67037047    -0.18200
C357        C  0.41001190  0.21213998  0.67386673     0.10100
C358        C  0.42573038  0.20785404  0.64274264    -0.07000
C359        C  0.42985088  0.22630804  0.60982405    -0.18200
C360        C  0.41809978  0.24819675  0.60675662     0.10200
S361        S  0.40394923  0.18916605  0.71715806    -0.33200
S362        S  0.42720056  0.27168231  0.56380774    -0.33200
H363        H  0.43900676  0.30050031  0.58346008     0.28200
H364        H  0.38636183  0.20109931  0.73638481     0.28200
H365        H  0.38430668  0.23547222  0.69397293     0.18800
H366        H  0.44216126  0.22337611  0.58594533     0.18800
C367        C  0.41069732  0.38690589  0.53403081    -0.07100
C368        C  0.42514925  0.38701909  0.49975080    -0.18200
C369        C  0.41772789  0.39847213  0.46583224     0.10100
C370        C  0.39383809  0.40797648  0.46595143    -0.07000
C371        C  0.38280917  0.41174266  0.50119837    -0.18200
C372        C  0.39139684  0.40190995  0.53506130     0.10200
S373        S  0.43665361  0.39768457  0.42242489    -0.33200
S374        S  0.37312967  0.40470279  0.57812328    -0.33200
H375        H  0.39906720  0.41035011  0.60145573     0.28200
H376        H  0.46043969  0.39237896  0.43956709     0.28200
H377        H  0.44024156  0.37585704  0.49895773     0.18800
H378        H  0.36529972  0.41997613  0.50212736     0.18800
C379        C  0.21612825  0.42490884  0.35651634    -0.07100
C380        C  0.22017394  0.41063693  0.32395949    -0.18200
C381        C  0.24140300  0.39814743  0.32359802     0.10100
C382        C  0.25902835  0.39939319  0.35697933    -0.07000
C383        C  0.25655749  0.41595787  0.38844639    -0.18200
C384        C  0.23571016  0.42881701  0.38848925     0.10200
S385        S  0.24367735  0.38023652  0.27984113    -0.33200
S386        S  0.23496101  0.44949139  0.43063693    -0.33200
H387        H  0.22639635  0.47051680  0.41150640     0.28200
H388        H  0.27647462  0.39737884  0.27825105     0.28200
H389        H  0.20549550  0.40768365  0.29909296     0.18800
H390        H  0.27040212  0.41833075  0.41391952     0.18800
C391        C  0.99978191  0.42115338  0.31127364    -0.07100
C392        C  0.47699794  0.39392997  0.32794084    -0.18200
C393        C  0.44501368  0.38469694  0.32231956     0.10100
C394        C  0.43577164  0.40401285  0.30003364    -0.07000
C395        C  0.45873861  0.43113557  0.28223973    -0.18200
C396        C  0.49041947  0.44015512  0.28761467     0.10200
S397        S  0.41715968  0.34743837  0.34272596    -0.33200
S398        S  0.01797378  0.47620018  0.26611478    -0.33200
H399        H  0.03605250  0.48609170  0.29946699     0.28200
H400        H  0.39360707  0.34117781  0.31507914     0.28200
H401        H  0.48403910  0.37889920  0.34454386     0.18800
H402        H  0.45209354  0.44655782  0.26578044     0.18800
C403        C  0.09649836  0.02895096  0.31336559    -0.07100
C404        C  0.10183451  0.04802192  0.28054642    -0.18200
C405        C  0.09163982  0.07151166  0.27708410     0.10100
C406        C  0.07463302  0.07621111  0.30708950    -0.07000
C407        C  0.07071608  0.05817213  0.34054156    -0.18200
C408        C  0.08149228  0.03527464  0.34409700     0.10200
S409        S  0.10092855  0.09497685  0.23378244    -0.33200
S410        S  0.07250500  0.01290686  0.38765624    -0.33200
H411        H  0.10412096  0.02099601  0.39437341     0.28200
H412        H  0.11229706  0.07751818  0.21310846     0.28200
H413        H  0.11335804  0.04376965  0.25683094     0.18800
H414        H  0.05822999  0.06120140  0.36413031     0.18800
C415        C  0.09607975  0.33443403  0.35608495    -0.07100
C416        C  0.10672224  0.32237233  0.32662248    -0.18200
C417        C  0.09928163  0.29006475  0.32486382     0.10100
C418        C  0.08038113  0.26832512  0.35313405    -0.07000
C419        C  0.06914025  0.28014499  0.38224220    -0.18200
C420        C  0.07604066  0.31237451  0.38353903     0.10200
S421        S  0.11699635  0.27781200  0.28830994    -0.33200
S422        S  0.05780618  0.32346092  0.42061827    -0.33200
H423        H  0.05199269  0.34457842  0.39746314     0.28200
H424        H  0.13188878  0.30687116  0.26865248     0.28200
H425        H  0.12234693  0.33870823  0.30572917     0.18800
H426        H  0.05472740  0.26407380  0.40423091     0.18800
C427        C  0.20707671  0.46727891  0.14439190    -0.07100
C428        C  0.20369390  0.49129376  0.16318463    -0.18200
C429        C  0.18492393  0.48494852  0.19549321     0.10100
C430        C  0.16799856  0.45351737  0.20947809    -0.07000
C431        C  0.17250430  0.42968996  0.19190061    -0.18200
C432        C  0.19200085  0.43627748  0.16007708     0.10200
S433        S  0.18494704  0.01822232  0.21822585    -0.33200
S434        S  0.19791631  0.40443954  0.14221882    -0.33200
H435        H  0.22913793  0.42400541  0.13173984     0.28200
H436        H  0.18424301  0.50716770  0.25537933     0.28200
H437        H  0.21571959  0.01504113  0.15217087     0.18800
H438        H  0.16052298  0.40564620  0.20279200     0.18800
C439        C  0.09552651  0.32537223  0.98171031    -0.07100
C440        C  0.10777305  0.34134685  0.01648322    -0.18200
C441        C  0.13093715  0.37383042  0.01828896     0.10100
C442        C  0.14437813  0.39183139  0.98461216    -0.07000
C443        C  0.13120076  0.37609400  0.95003366    -0.18200
C444        C  0.10705142  0.34432291  0.94818172     0.10200
S445        S  0.14255111  0.39055718  0.06480396    -0.33200
S446        S  0.09174742  0.32996812  0.90143182    -0.33200
H447        H  0.06026974  0.31655156  0.91274631     0.28200
H448        H  0.13972898  0.41791816  0.05538199     0.28200
H449        H  0.09938600  0.32835313  0.04290190     0.18800
H450        H  0.13994633  0.38873463  0.92347845     0.18800
C451        C  0.33845217  0.08489538  0.02211137    -0.07100
C452        C  0.35050265  0.10106453  0.98733021    -0.18200
C453        C  0.38042002  0.12809329  0.98454579     0.10100
C454        C  0.39999835  0.14048744  0.01724751    -0.07000
C455        C  0.38862083  0.12348037  0.05156754    -0.18200
C456        C  0.35917411  0.09594960  0.05414789     0.10200
S457        S  0.39103065  0.14694517  0.93861757    -0.33200
S458        S  0.35008031  0.07577128  0.09945062    -0.33200
H459        H  0.33753680  0.04541059  0.08344814     0.28200
H460        H  0.40154832  0.17750865  0.95297167     0.28200
H461        H  0.33587724  0.09353595  0.96201846     0.18800
H462        H  0.40300253  0.13170632  0.07702379     0.18800
C463        C  0.25325004  0.11544709  0.00909050    -0.07100
C464        C  0.24487916  0.13011672  0.03788382    -0.18200
C465        C  0.25847095  0.16322132  0.04063170     0.10100
C466        C  0.28193285  0.18254963  0.01468903    -0.07000
C467        C  0.28905600  0.16792592  0.98466998    -0.18200
C468        C  0.27483404  0.13488067  0.98133916     0.10200
S469        S  0.24499058  0.17997760  0.07722404    -0.33200
S470        S  0.28737232  0.11910167  0.94292168    -0.33200
H471        H  0.25668488  0.09983137  0.92968741     0.28200
H472        H  0.21518316  0.15370090  0.08063634     0.28200
H473        H  0.22841884  0.11552824  0.05931416     0.18800
H474        H  0.30633726  0.18235078  0.96388970     0.18800
C475        C  0.25017498  0.33627523  0.99116585    -0.07100
C476        C  0.23177149  0.34036936  0.01864675    -0.18200
C477        C  0.23156847  0.36926428  0.02272994     0.10100
C478        C  0.24923887  0.39466322  0.99774626    -0.07000
C479        C  0.26897015  0.39092460  0.97151103    -0.18200
C480        C  0.27005440  0.36227578  0.96844104     0.10200
S481        S  0.20687873  0.37125097  0.05892556    -0.33200
S482        S  0.29749167  0.36067529  0.93546394    -0.33200
H483        H  0.30329690  0.33847848  0.95632170     0.28200
H484        H  0.23242763  0.39624020  0.07695779     0.28200
H485        H  0.21674893  0.32060151  0.03655374     0.18800
H486        H  0.28332075  0.41035026  0.95273600     0.18800
C487        C  0.20434038  0.05725150  0.80771902    -0.07100
C488        C  0.23592518  0.06374976  0.81253628    -0.18200
C489        C  0.24600414  0.05181592  0.84387153     0.10100
C490        C  0.22417254  0.03275478  0.87152781    -0.07000
C491        C  0.19304678  0.02707178  0.86756582    -0.18200
C492        C  0.18281927  0.03903438  0.83655289     0.10200
S493        S  0.28667549  0.06062748  0.84582996    -0.33200
S494        S  0.14184548  0.53066986  0.83536259    -0.33200
H495        H  0.13262872  0.01253591  0.86896726     0.28200
H496        H  0.28225632  0.03292347  0.86532089     0.28200
H497        H  0.25286024  0.07746305  0.79108123     0.18800
H498        H  0.17624666  0.51340899  0.88981502     0.18800
C499        C  0.27585330  0.07290817  0.64794955    -0.07100
C500        C  0.29473829  0.08465435  0.68083528    -0.18200
C501        C  0.32689366  0.09205716  0.68187544     0.10100
C502        C  0.34193398  0.08895684  0.64872677    -0.07000
C503        C  0.32235296  0.07544680  0.61664455    -0.18200
C504        C  0.29006087  0.06708510  0.61610023     0.10200
S505        S  0.34704651  0.10556229  0.72664749    -0.33200
S506        S  0.26815239  0.04860217  0.57363552    -0.33200
H507        H  0.23986562  0.02974456  0.59244739     0.28200
H508        H  0.36116873  0.08552643  0.72569621     0.28200
H509        H  0.28460633  0.08907094  0.70587136     0.18800
H510        H  0.33231931  0.07165922  0.59108380     0.18800
C511        C  0.08062013  0.06446200  0.68486600    -0.07100
C512        C  0.08005770  0.08492480  0.71313914    -0.18200
C513        C  0.05806269  0.09688774  0.71267843     0.10100
C514        C  0.03522450  0.08876429  0.68318968    -0.07000
C515        C  0.03639496  0.06933313  0.65404824    -0.18200
C516        C  0.05806946  0.05682213  0.65483243     0.10200
S517        S  0.06037211  0.12251812  0.75103423    -0.33200
S518        S  0.05351612  0.02889011  0.61836173    -0.33200
H519        H  0.05433353  0.00628583  0.64399885     0.28200
H520        H  0.04793082  0.13958227  0.73012241     0.28200
H521        H  0.09690102  0.09163175  0.73635911     0.18800
H522        H  0.01863153  0.06175873  0.63181050     0.18800
C523        C  0.51131265  0.39265951  0.67838049    -0.07100
C524        C  0.02896775  0.39723189  0.71203303    -0.18200
C525        C  0.05968238  0.42120884  0.71463763     0.10100
C526        C  0.07288996  0.44135386  0.68308150    -0.07000
C527        C  0.05729440  0.43346434  0.64784422    -0.19100
C528        C  0.02668701  0.40901087  0.64480211     0.10200
S529        S  0.08031546  0.42556767  0.75923049    -0.33200
S530        S  0.50798052  0.40125603  0.59849723    -0.33200
H531        H  0.53057277  0.42815706  0.57954240     0.28200
H532        H  0.11033086  0.43903920  0.74313248     0.28200
H533        H  0.01833533  0.38340549  0.73735533     0.18800
H534        H  0.06819091  0.44806571  0.62316995     0.18800
C535        C  0.28026087  0.23749103  0.65772320    -0.07100
C536        C  0.28256640  0.21972468  0.68856389    -0.18200
C537        C  0.26572420  0.18683647  0.68870660     0.10100
C538        C  0.24448756  0.17157147  0.65848754    -0.07000
C539        C  0.23921825  0.19009329  0.63047819    -0.18200
C540        C  0.25710224  0.22285866  0.62964045     0.10200
S541        S  0.27599058  0.16621728  0.72525377    -0.33200
S542        S  0.25099046  0.24466149  0.59080858    -0.33200
H543        H  0.26452875  0.27405367  0.60927572     0.28200
H544        H  0.28145206  0.14716926  0.69932632     0.28200
H545        H  0.30067356  0.23105686  0.71001489     0.18800
H546        H  0.22202217  0.17896046  0.60804855     0.18800
C547        C  0.13522799  0.00714519  0.53595704    -0.07100
C548        C  0.11386923  0.47468421  0.54007164    -0.18200
C549        C  0.10019490  0.45545737  0.50816461     0.10100
C550        C  0.10770708  0.46860001  0.47111051    -0.07000
C551        C  0.12849014  0.50110207  0.46739370    -0.18200
C552        C  0.14232529  0.02039525  0.49894452     0.10200
S553        S  0.07315757  0.41441474  0.51666609    -0.33200
S554        S  0.16783117  0.06184772  0.49040628    -0.33200
H555        H  0.15884870  0.07261457  0.52263469     0.28200
H556        H  0.05459182  0.41091349  0.48402925     0.28200
H557        H  0.10807433  0.46415813  0.56822741     0.18800
H558        H  0.13572821  0.01143693  0.43898431     0.18800
O559        O  0.16610562  0.56225548  0.76639738    -0.81800
O560        O  0.13090098  0.52374434  0.59819368    -0.66500
O561        O  0.16304888  0.53286250  0.69922638    -1.13100
C562        C  0.22792744  0.63684923  0.65461029     1.05100
O563        O  0.17867023  0.54355691  0.57452341    -0.79700
O564        O  0.23491740  0.57909639  0.61515365    -0.67300
Ni565      Ni  0.13522069  0.52568075  0.74067582     1.34900
C566        C  0.24355934  0.57125343  0.64625923     0.83800
O567        O  0.11677580  0.98520366  0.65803438    -0.80300
O568        O  0.10308626  0.98785077  0.71808386    -0.90500
C569        C  0.14902095  0.52609590  0.57121569     0.83400
O570        O  0.11518099  0.55032490  0.72203390    -0.68700
O571        O  0.21893325  0.62615616  0.62101050    -0.88000
C572        C  0.10402825  0.55103255  0.68912291     0.84200
C573        C  0.09971077  0.97308694  0.68695816     1.05800
H574        H  0.16349207  0.58390438  0.64492475     0.37600
O575        O  0.17460844  0.57148235  0.64416087    -1.10700
O576        O  0.22663670  0.56419410  0.67607640    -0.67300
Ni577      Ni  0.19461971  0.57571360  0.69255882     1.26300
O578        O  0.11221065  0.54074116  0.66018105    -0.67600
O579        O  0.22297143  0.61939352  0.68429814    -0.79900
C580        C  0.19391614  0.56647776  0.77114878     0.83600
O581        O  0.21205294  0.57632104  0.74272590    -0.67000
Ni582      Ni  0.19903885  0.58465814  0.59957674     1.27400
Ni583      Ni  0.14514909  0.52826084  0.64970368     1.26100
H584        H  0.17266357  0.51908922  0.70208471     0.38100
O585        O  0.24803644  0.50230014  0.10290337    -0.81800
O586        O  0.25220211  0.53560748  0.92953435    -0.66500
O587        O  0.22653449  0.50934370  0.03174576    -1.13100
C588        C  0.24377446  0.92240508  0.99318452     1.05100
O589        O  0.21617225  0.98826706  0.91082177    -0.79700
O590        O  0.18966665  0.93042601  0.95125371    -0.67300
Ni591      Ni  0.24808878  0.53684313  0.07337143     1.34900
C592        C  0.17462044  0.92371050  0.98231970     0.83800
O593        O  0.23769026  0.56307344  0.98634247    -0.80300
O594        O  0.24893986  0.57343139  0.04831564    -0.90500
C595        C  0.23182627  0.51811705  0.90534352     0.83400
O596        O  0.29111128  0.55149897  0.05762311    -0.68700
O597        O  0.24590500  0.93369813  0.95937150    -0.88000
C598        C  0.30358027  0.56052007  0.02492409     0.84200
C599        C  0.24529570  0.58169638  0.01467858     1.05800
H600        H  0.26854648  0.99319695  0.98118954     0.37600
O601        O  0.24642810  0.98701257  0.97962402    -1.10700
O602        O  0.18559769  0.94236146  0.01104377    -0.67300
Ni603      Ni  0.22949561  0.96987693  0.02794459     1.26300
O604        O  0.28685298  0.55104225  0.99443217    -0.67600
O605        O  0.23629013  0.93330895  0.02226468    -0.79900
C606        C  0.22368340  0.97502701  0.10670134     0.83600
O607        O  0.21310421  0.95650716  0.07843863    -0.67000
Ni608      Ni  0.23124877  0.96122988  0.93627100     1.27400
Ni609      Ni  0.24191647  0.52503945  0.98199144     1.26100
H610        H  0.20467954  0.50431079  0.03261559     0.38100
O611        O  0.10138998  0.92424482  0.43401729    -0.81800
O612        O  0.14213036  0.92404645  0.26552718    -0.66500
O613        O  0.13174556  0.94642174  0.36613103    -1.13100
C614        C  0.03288341  0.92846160  0.31218420     1.05100
O615        O  0.12908342  0.96021884  0.24385120    -0.79700
O616        O  0.09391163  0.98498103  0.27908926    -0.67300
Ni617      Ni  0.13659927  0.92406893  0.40956229     1.34900
C618        C  0.09980724  0.99880529  0.31103509     0.83800
O619        O  0.17817029  0.93825367  0.32812971    -0.80300
O620        O  0.17295509  0.92294924  0.38936038    -0.90500
C621        C  0.14489073  0.94501560  0.24081420     0.83400
O622        O  0.11048805  0.88188938  0.39157787    -0.68700
O623        O  0.04472698  0.92793857  0.28007250    -0.88000
C624        C  0.10900948  0.86995640  0.35901246     0.84200
C625        C  0.18782601  0.92992953  0.35811862     1.05800
H626        H  0.08128235  0.90468111  0.30853800     0.37600
O627        O  0.09537345  0.92712795  0.30877263    -1.10700
O628        O  0.10608749  0.98665729  0.34055854    -0.67300
Ni629      Ni  0.09041797  0.94243436  0.35635468     1.26300
O630        O  0.11987914  0.88740643  0.32923652    -0.67600
O631        O  0.04812164  0.93533255  0.34402441    -0.79900
C632        C  0.09803207  0.94906199  0.43568079     0.83600
O633        O  0.08941366  0.95859180  0.40593742    -0.67000
Ni634      Ni  0.08693509  0.94372113  0.26332692     1.27400
Ni635      Ni  0.13687645  0.93280419  0.31727311     1.26100
H636        H  0.14651210  0.96854962  0.36871914     0.38100
O637        O  0.38437240  0.83578198  0.55966153    -0.81800
O638        O  0.35732617  0.78711303  0.73178550    -0.66500
O639        O  0.37138309  0.82978087  0.63633644    -1.13100
C640        C  0.47667607  0.87466950  0.68106120     1.05100
O641        O  0.38364606  0.83276265  0.76106252    -0.79700
O642        O  0.42070236  0.88806293  0.72412910    -0.67300
Ni643      Ni  0.35556799  0.80324440  0.59280578     1.34900
C644        C  0.41905788  0.90030999  0.69243837     0.83800
O645        O  0.31996578  0.78710034  0.67581741    -0.80300
O646        O  0.32231502  0.76866702  0.61921028    -0.90500
C647        C  0.36235461  0.80405910  0.76088463     0.83400
O648        O  0.38388455  0.78607156  0.60373932    -0.68700
O649        O  0.46504962  0.86855650  0.71448488    -0.88000
C650        C  0.38345643  0.77095738  0.63421161     0.84200
C651        C  0.30799216  0.76694824  0.64984535     1.05800
H652        H  0.41571828  0.81290066  0.68886732     0.37600
O653        O  0.40760165  0.82796632  0.68974702    -1.10700
O654        O  0.41580369  0.88669921  0.66097199    -0.67300
Ni655      Ni  0.41609729  0.84971203  0.64234176     1.26300
O656        O  0.36842358  0.77197919  0.66337165    -0.67600
O657        O  0.46016373  0.86815506  0.65065309    -0.79900
C658        C  0.40684240  0.86341900  0.56430631     0.83600
O659        O  0.42311441  0.87201826  0.59469565    -0.67000
Ni660      Ni  0.42384204  0.85027638  0.73584212     1.27400
Ni661      Ni  0.36380468  0.80740332  0.68346861     1.26100
H662        H  0.36334479  0.84496106  0.63678518     0.38100
O663        O  0.30575771  0.77688449  0.09844554    -0.81800
O664        O  0.29883471  0.75528895  0.92053403    -0.66500
O665        O  0.29969381  0.78316246  0.02113364    -1.13100
C666        C  0.19173436  0.72372607  0.01116304     1.05100
O667        O  0.26033453  0.76432870  0.89983649    -0.79700
O668        O  0.24490393  0.79279599  0.95463047    -0.67300
Ni669      Ni  0.32800538  0.77659802  0.05436630     1.34900
C670        C  0.24767419  0.80426543  0.98753326     0.83800
O671        O  0.34217326  0.79741831  0.96383585    -0.80300
O672        O  0.35607283  0.77915247  0.01489652    -0.90500
C673        C  0.28515496  0.76205137  0.89390169     0.83400
O674        O  0.30285161  0.73186182  0.04864671    -0.68700
O675        O  0.19696870  0.73465659  0.97717480    -0.88000
C676        C  0.29783350  0.71782973  0.01689193     0.84200
C677        C  0.36250176  0.79415573  0.98338258     1.05800
H678        H  0.25126389  0.72066779  0.97662918     0.37600
O679        O  0.25643715  0.74278655  0.97750599    -1.10700
O680        O  0.24698177  0.78910526  0.01775672    -0.67300
Ni681      Ni  0.25630117  0.75494394  0.02936786     1.26300
O682        O  0.30624350  0.73358814  0.98582313    -0.67600
O683        O  0.21304514  0.72662756  0.03490572    -0.79900
C684        C  0.27975094  0.77614619  0.10573988     0.83600
O685        O  0.25750359  0.76780576  0.08141650    -0.67000
Ni686      Ni  0.23036373  0.74970309  0.94107815     1.27400
Ni687      Ni  0.29943503  0.76935361  0.97049885     1.26100
H688        H  0.30418427  0.80511779  0.02127048     0.38100
O689        O  0.34472191  0.89478845  0.43644776    -0.81800
O690        O  0.29149816  0.84415503  0.27184889    -0.66500
O691        O  0.33432435  0.86432928  0.36722773    -1.13100
C692        C  0.38624007  0.96478030  0.30734684     1.05100
O693        O  0.33667446  0.86576059  0.24173638    -0.79700
O694        O  0.39360508  0.90901875  0.27166290    -0.67300
Ni695      Ni  0.31043471  0.85977727  0.41127537     1.34900
C696        C  0.40387451  0.90072972  0.30099044     0.83800
O697        O  0.28801133  0.81195209  0.33561964    -0.80300
O698        O  0.27423517  0.82305325  0.39148660    -0.90500
C699        C  0.30776322  0.84563183  0.24325908     0.83400
O700        O  0.29548999  0.88792582  0.39128311    -0.68700
O701        O  0.37180018  0.95161102  0.27663584    -0.88000
C702        C  0.27904400  0.88345951  0.36115047     0.84200
C703        C  0.26947640  0.80477468  0.36324039     1.05800
H704        H  0.32383039  0.90854674  0.31102223     0.37600
O705        O  0.33603733  0.89736771  0.30882376    -1.10700
O706        O  0.38919641  0.89284052  0.33199588    -0.67300
Ni707      Ni  0.36156213  0.90672928  0.35303823     1.26300
O708        O  0.27860302  0.86453032  0.33568827    -0.67600
O709        O  0.38760076  0.94947265  0.33694710    -0.79900
C710        C  0.37414310  0.90586953  0.43180774     0.83600
O711        O  0.38598926  0.91324569  0.39883887    -0.67000
Ni712      Ni  0.35437225  0.90871283  0.26042577     1.27400
Ni713      Ni  0.31158707  0.85424493  0.32061117     1.26100
H714        H  0.34551834  0.85204221  0.37028182     0.38100
O715        O  0.43115236  0.59503486  0.56374478    -0.81800
O716        O  0.43624592  0.64079131  0.73312091    -0.66500
O717        O  0.45362500  0.62709253  0.63173230    -1.13100
C718        C  0.43519775  0.52780272  0.68745222     1.05100
O719        O  0.47173421  0.62615910  0.75274717    -0.79700
O720        O  0.49250101  0.58697083  0.71848404    -0.67300
Ni721      Ni  0.42788749  0.62867027  0.59041037     1.34900
C722        C  0.00620467  0.59339066  0.68670501     0.83800
O723        O  0.44670578  0.67498699  0.66897200    -0.80300
O724        O  0.42381272  0.66383559  0.61141198    -0.90500
C725        C  0.45673560  0.64197851  0.75736639     0.83400
O726        O  0.38816580  0.59937465  0.61254462    -0.68700
O727        O  0.43457211  0.53985116  0.71947786    -0.88000
C728        C  0.37749486  0.60185534  0.64469911     0.84200
C729        C  0.43318011  0.68111009  0.64096011     1.05800
H730        H  0.41413694  0.57780406  0.69099523     0.37600
O731        O  0.43638276  0.59184563  0.69034701    -1.10700
O732        O  0.49470160  0.60160508  0.65779465    -0.67300
Ni733      Ni  0.45054027  0.58591827  0.64285518     1.26300
O734        O  0.39635076  0.61649804  0.67218627    -0.67600
O735        O  0.44371050  0.54371846  0.65611595    -0.79900
C736        C  0.45551486  0.59097523  0.56303572     0.83600
O737        O  0.46557953  0.58380157  0.59341441    -0.67000
Ni738      Ni  0.45294165  0.58299347  0.73523223     1.27400
Ni739      Ni  0.44203798  0.63371539  0.68107350     1.26100
H740        H  0.47519295  0.64222534  0.62712249     0.38100
O741        O  0.01800096  0.73503097  0.90210181    -0.81800
O742        O  0.03642261  0.74464521  0.07741268    -0.66500
O743        O  0.01515651  0.71349772  0.97709271    -1.13100
C744        C  0.44200488  0.75142664  0.99298733     1.05100
O745        O  0.48761440  0.71413910  0.09482152    -0.79700
O746        O  0.43471214  0.68999404  0.04685759    -0.67300
Ni747      Ni  0.04583763  0.72894169  0.93787526     1.34900
C748        C  0.43002294  0.67244241  0.01805486     0.83800
O749        O  0.05964942  0.71802721  0.03071175    -0.80300
O750        O  0.07436484  0.72098716  0.96977591    -0.90500
C751        C  0.01722106  0.72598770  0.10148266     0.83400
O752        O  0.06692352  0.77389220  0.94987721    -0.68700
O753        O  0.44640932  0.75059589  0.02910576    -0.88000
C754        C  0.07234959  0.78917647  0.98093981     0.84200
C755        C  0.07627182  0.71509533  0.00506673     1.05800
H756        H  0.00480907  0.76470053  0.01710093     0.37600
O757        O  0.49550206  0.74227348  0.02078386    -1.10700
O758        O  0.44934822  0.68152254  0.99029782    -0.67300
Ni759      Ni  0.48122320  0.72363137  0.97246761     1.26300
O760        O  0.05941918  0.77469411  0.01189437    -0.67600
O761        O  0.45026626  0.73741820  0.96860011    -0.79900
C762        C  0.48993694  0.71378084  0.89664984     0.83600
O763        O  0.47019485  0.70562827  0.92321793    -0.67000
Ni764      Ni  0.46664413  0.73186408  0.06085843     1.27400
Ni765      Ni  0.02818321  0.73105483  0.02636298     1.26100
H766        H  0.00696789  0.69081098  0.97908626     0.38100
O767        O  0.07043955  0.66262069  0.23124232    -0.81800
O768        O  0.02650962  0.61804454  0.39675475    -0.66500
O769        O  0.03963526  0.65561716  0.29755873    -1.13100
C770        C  0.13995751  0.71952967  0.35126082     1.05100
O771        O  0.04354628  0.66556333  0.42168367    -0.79700
O772        O  0.08127002  0.72454893  0.38694217    -0.67300
Ni773      Ni  0.03420628  0.62991337  0.25397571     1.34900
C774        C  0.07596128  0.73469232  0.35535740     0.83800
O775        O  0.49093815  0.60625935  0.33398418    -0.80300
O776        O  0.49669727  0.59573663  0.27364260    -0.90500
C777        C  0.02800746  0.63544715  0.42460972     0.83400
O778        O  0.05922734  0.61059254  0.27190834    -0.68700
O779        O  0.12735007  0.70836795  0.38343309    -0.88000
C780        C  0.05968194  0.59811379  0.30391789     0.84200
C781        C  0.48054977  0.59044044  0.30365260     1.05800
H782        H  0.08804299  0.65397702  0.35437204     0.37600
O783        O  0.07537055  0.66481852  0.35483125    -1.10700
O784        O  0.06889316  0.71802134  0.32528144    -0.67300
Ni785      Ni  0.08171107  0.68728993  0.30782921     1.26300
O786        O  0.04718477  0.60333655  0.33314242    -0.67600
O787        O  0.12440007  0.71595785  0.32023832    -0.79900
C788        C  0.07384091  0.69052573  0.22953658     0.83600
O789        O  0.08428459  0.70764521  0.25886843    -0.67000
Ni790      Ni  0.08544108  0.68729361  0.40105792     1.27400
Ni791      Ni  0.03308799  0.63496054  0.34579889     1.26100
H792        H  0.02602719  0.66538135  0.29494191     0.38100
C793        C  0.03032423  0.71680613  0.13572651    -0.07100
C794        C  0.06083154  0.73795476  0.14840905    -0.18200
C795        C  0.07596163  0.73004442  0.17808999     0.10100
C796        C  0.06036746  0.70036395  0.19652475    -0.07000
C797        C  0.02987802  0.67923656  0.18412993    -0.18200
C798        C  0.01489997  0.68686538  0.15404128     0.10200
S799        S  0.11571106  0.75822056  0.18960101    -0.33200
S800        S  0.47666172  0.65684426  0.13973084    -0.33200
H801        H  0.48396708  0.65948549  0.10084738     0.28200
H802        H  0.12552113  0.73567611  0.20050222     0.28200
H803        H  0.07342464  0.76079869  0.13451226     0.18800
H804        H  0.01752307  0.65633507  0.19800725     0.18800
C805        C  0.46369057  0.66157544  0.79180356    -0.07100
C806        C  0.45787346  0.64584642  0.82695331    -0.18200
C807        C  0.46641711  0.66249540  0.86104127     0.10100
C808        C  0.48067629  0.69596606  0.86055618    -0.07000
C809        C  0.48648762  0.71191805  0.82534577    -0.18200
C810        C  0.47833085  0.69508655  0.79096312     0.10200
S811        S  0.46044666  0.63954216  0.90418300    -0.33200
S812        S  0.98854754  0.71738072  0.74708871    -0.33200
H813        H  0.49456525  0.69627258  0.72656457     0.28200
H814        H  0.48968752  0.66005676  0.92028772     0.28200
H815        H  0.44735170  0.62022787  0.82782981     0.18800
H816        H  0.99795408  0.73734760  0.82444010     0.18800
C817        C  0.47404510  0.59756896  0.52737536    -0.07100
C818        C  0.00621106  0.61865567  0.52955670    -0.18200
C819        C  0.02445542  0.63048031  0.49677834     0.10100
C820        C  0.01058700  0.62082644  0.46035003    -0.07000
C821        C  0.47881254  0.59849117  0.45817739    -0.18200
C822        C  0.46048916  0.58677364  0.49109198     0.10200
S823        S  0.06530083  0.65807337  0.50355259    -0.33200
S824        S  0.42000498  0.55814942  0.48495455    -0.33200
H825        H  0.41734535  0.54283928  0.52023096     0.28200
H826        H  0.07597538  0.64912675  0.47124689     0.28200
H827        H  0.01702730  0.62728402  0.55708131     0.18800
H828        H  0.46789906  0.59055976  0.43055412     0.18800
C829        C  0.17449119  0.73767400  0.35125355    -0.07100
C830        C  0.19040737  0.73928308  0.38590804    -0.18200
C831        C  0.22230460  0.75893143  0.39005220     0.10100
C832        C  0.23896931  0.77733149  0.35889166    -0.07000
C833        C  0.22411355  0.77355934  0.32332965    -0.18200
C834        C  0.19205007  0.75400337  0.31892640     0.10200
S835        S  0.24009332  0.76019242  0.43600525    -0.33200
S836        S  0.17468828  0.75187348  0.27228492    -0.33200
H837        H  0.20232498  0.77126521  0.25258188     0.28200
H838        H  0.27041170  0.76959383  0.42229951     0.28200
H839        H  0.17790598  0.72589310  0.41067305     0.18800
H840        H  0.23729986  0.78784661  0.29944514     0.18800
C841        C  0.44952059  0.56265691  0.30419182    -0.07100
C842        C  0.43757124  0.54829938  0.33943052    -0.18200
C843        C  0.41453664  0.51681108  0.34157074     0.10100
C844        C  0.40386117  0.99952391  0.30748177    -0.07000
C845        C  0.41233525  0.51530123  0.27245322    -0.18200
C846        C  0.43444080  0.54694269  0.27041807     0.10200
S847        S  0.39958709  0.99984418  0.38760242    -0.33200
S848        S  0.44301304  0.56524958  0.22381387    -0.33200
H849        H  0.45033401  0.59567731  0.23684166     0.28200
H850        H  0.42008030  0.02579661  0.40955159     0.28200
H851        H  0.44784526  0.56093740  0.36542642     0.18800
H852        H  0.40301620  0.00281920  0.24598141     0.18800
C853        C  0.29366627  0.82261469  0.21226060    -0.07100
C854        C  0.27620505  0.82841349  0.18374116    -0.18200
C855        C  0.26843113  0.81148309  0.14954951     0.10100
C856        C  0.27756733  0.78755980  0.14407178    -0.07000
C857        C  0.29231435  0.77988193  0.17442707    -0.18200
C858        C  0.30051900  0.79711394  0.20819177     0.10200
S859        S  0.25022628  0.82413232  0.11271617    -0.33200
S860        S  0.32170101  0.78681073  0.24384443    -0.33200
H861        H  0.31227085  0.79814850  0.27506822     0.28200
H862        H  0.27209721  0.82741810  0.08478862     0.28200
H863        H  0.27072848  0.84788558  0.18687444     0.18800
H864        H  0.29940669  0.76158129  0.17083211     0.18800
C865        C  0.39267814  0.80234715  0.96704404    -0.07100
C866        C  0.39163805  0.78089532  0.93975877    -0.18200
C867        C  0.40906762  0.76452642  0.94571599     0.10100
C868        C  0.42828328  0.77138658  0.97879341    -0.07000
C869        C  0.43507911  0.79889699  0.99928008    -0.18200
C870        C  0.41820776  0.81542292  0.99220681     0.10200
S871        S  0.40320227  0.73301195  0.91363806    -0.33200
S872        S  0.42469522  0.84824200  0.02208591    -0.33200
H873        H  0.40481414  0.85705681  0.00096406     0.28200
H874        H  0.38786605  0.74145671  0.88467468     0.28200
H875        H  0.37293260  0.77240078  0.91866624     0.18800
H876        H  0.45218933  0.80645940  0.02226864     0.18800
C877        C  0.10007851  0.70570778  0.01674005    -0.07100
C878        C  0.11938734  0.72073239  0.04806458    -0.18200
C879        C  0.14903458  0.72245426  0.05134320     0.10100
C880        C  0.15902992  0.70895106  0.02267357    -0.07000
C881        C  0.13712966  0.68847266  0.99635261    -0.18200
C882        C  0.10743648  0.68640927  0.99340675     0.10200
S883        S  0.17430351  0.74563167  0.08937852    -0.33200
S884        S  0.08090442  0.66083235  0.95764347    -0.33200
H885        H  0.05347015  0.65675500  0.97582288     0.28200
H886        H  0.19768060  0.76671410  0.06505092     0.28200
H887        H  0.11302207  0.73423340  0.06739148     0.18800
H888        H  0.14430849  0.67681452  0.97533375     0.18800
C889        C  0.34125980  0.79139307  0.79357750    -0.07100
C890        C  0.32488661  0.80762646  0.80476152    -0.18200
C891        C  0.30394816  0.79673501  0.83501580     0.10100
C892        C  0.30037565  0.76983011  0.85622884    -0.07000
C893        C  0.31624673  0.75311800  0.84434217    -0.18200
C894        C  0.33619702  0.76327766  0.81296834     0.10200
S895        S  0.28388693  0.81927324  0.84624649    -0.33200
S896        S  0.35530407  0.74001683  0.80017554    -0.33200
H897        H  0.38294153  0.76539584  0.78663468     0.28200
H898        H  0.25403663  0.79308051  0.84258787     0.28200
H899        H  0.32811171  0.82879975  0.78938115     0.18800
H900        H  0.31376846  0.73245354  0.86030116     0.18800
C901        C  0.42778821  0.99396050  0.68743483    -0.07100
C902        C  0.44438110  0.98498580  0.66228656    -0.18200
C903        C  0.44245056  0.95499567  0.66426367     0.10100
C904        C  0.42249597  0.93259774  0.69106114    -0.07000
C905        C  0.40518475  0.94107465  0.71569658    -0.18200
C906        C  0.40749417  0.97153069  0.71415578     0.10200
S907        S  0.46808437  0.94777791  0.63374453    -0.33200
S908        S  0.38333356  0.98071204  0.74518891    -0.33200
H909        H  0.36967636  0.45188476  0.76478762     0.28200
H910        H  0.47748048  0.93316985  0.66260529     0.28200
H911        H  0.46050766  0.00207591  0.64230235     0.18800
H912        H  0.38951073  0.92362756  0.73565280     0.18800
C913        C  0.39988604  0.75083877  0.63655333    -0.07100
C914        C  0.39701563  0.73317047  0.67021404    -0.18200
C915        C  0.40987620  0.71211676  0.67370924     0.10100
C916        C  0.42570856  0.70795892  0.64262330    -0.07000
C917        C  0.42981063  0.72643559  0.60972386    -0.18200
C918        C  0.41794103  0.74823253  0.60665174     0.10200
S919        S  0.40378457  0.68907299  0.71694705    -0.33200
S920        S  0.42692795  0.77168387  0.56367653    -0.33200
H921        H  0.43866723  0.80051616  0.58328489     0.28200
H922        H  0.38647295  0.70122209  0.73636819     0.28200
H923        H  0.38397379  0.73524022  0.69378620     0.18800
H924        H  0.44217896  0.72357721  0.58585764     0.18800
C925        C  0.41045963  0.88690692  0.53425245    -0.07100
C926        C  0.42499391  0.88717955  0.49997411    -0.18200
C927        C  0.41760776  0.89873631  0.46610249     0.10100
C928        C  0.39365170  0.90815536  0.46625156    -0.07000
C929        C  0.38250700  0.91171897  0.50151184    -0.18200
C930        C  0.39106922  0.90180767  0.53532978     0.10200
S931        S  0.43675232  0.89831068  0.42272294    -0.33200
S932        S  0.37267216  0.90439323  0.57838297    -0.33200
H933        H  0.39849899  0.90985804  0.60182461     0.28200
H934        H  0.46027525  0.89254042  0.43979155     0.28200
H935        H  0.44015869  0.87610156  0.49914825     0.18800
H936        H  0.36494937  0.91988613  0.50248018     0.18800
C937        C  0.21604740  0.92512611  0.35620777    -0.07100
C938        C  0.22019126  0.91090287  0.32366956    -0.18200
C939        C  0.24149709  0.89851163  0.32336818     0.10100
C940        C  0.25911253  0.89983272  0.35678180    -0.07000
C941        C  0.25659861  0.91642850  0.38819289    -0.18200
C942        C  0.23564906  0.92915991  0.38819311     0.10200
S943        S  0.24385113  0.88058834  0.27966118    -0.33200
S944        S  0.23474479  0.94976493  0.43033660    -0.33200
H945        H  0.22615069  0.97075268  0.41116493     0.28200
H946        H  0.27665549  0.89767289  0.27818809     0.28200
H947        H  0.20551325  0.90787972  0.29878381     0.18800
H948        H  0.27044949  0.91887750  0.41368075     0.18800
C949        C  0.99981723  0.92168317  0.31094326    -0.07100
C950        C  0.47689020  0.89367549  0.32859300    -0.18200
C951        C  0.44492676  0.88458740  0.32301832     0.10100
C952        C  0.43579028  0.90395429  0.30066318    -0.07000
C953        C  0.45882011  0.93098224  0.28279849    -0.18200
C954        C  0.49046550  0.93985091  0.28812846     0.10200
S955        S  0.41696882  0.84744232  0.34356992    -0.33200
S956        S  0.01793721  0.97685721  0.26601865    -0.33200
H957        H  0.03632643  0.98652522  0.29915416     0.28200
H958        H  0.39333894  0.84125874  0.31605707     0.28200
H959        H  0.48385799  0.87860987  0.34524034     0.18800
H960        H  0.45225917  0.94644738  0.26629567     0.18800
C961        C  0.09622466  0.52856613  0.31340303    -0.07100
C962        C  0.10149802  0.54752838  0.28049918    -0.18200
C963        C  0.09148976  0.57114686  0.27703760     0.10100
C964        C  0.07443954  0.57587631  0.30695889    -0.07000
C965        C  0.07046309  0.55785253  0.34044458    -0.18200
C966        C  0.08125627  0.53497277  0.34410631     0.10200
S967        S  0.10062562  0.59432538  0.23353711    -0.33200
S968        S  0.07237701  0.51275330  0.38777158    -0.33200
H969        H  0.10401362  0.52088376  0.39435572     0.28200
H970        H  0.12186387  0.58468955  0.21905679     0.28200
H971        H  0.11261877  0.54296618  0.25658459     0.18800
H972        H  0.05799079  0.56093751  0.36400958     0.18800
C973        C  0.09601601  0.83435311  0.35603522    -0.07100
C974        C  0.10665040  0.82224885  0.32660559    -0.18200
C975        C  0.09930715  0.78995307  0.32498373     0.10100
C976        C  0.08039952  0.76822894  0.35326671    -0.07000
C977        C  0.06921326  0.78009540  0.38238225    -0.18200
C978        C  0.07612639  0.81233497  0.38364237     0.10200
S979        S  0.11719952  0.77770761  0.28863518    -0.33200
S980        S  0.05817104  0.82350049  0.42096907    -0.33200
H981        H  0.05207939  0.84446754  0.39788343     0.28200
H982        H  0.13253981  0.80687362  0.26929545     0.28200
H983        H  0.12221450  0.83855640  0.30564575     0.18800
H984        H  0.05486542  0.76406104  0.40443966     0.18800
C985        C  0.20672278  0.96682902  0.14389110    -0.07100
C986        C  0.20375226  0.99096562  0.16296692    -0.18200
C987        C  0.18502670  0.98469993  0.19530909     0.10100
C988        C  0.16773085  0.95324474  0.20906073    -0.07000
C989        C  0.17180142  0.92926558  0.19120277    -0.18200
C990        C  0.19126393  0.93576280  0.15935672     0.10200
S991        S  0.18433213  0.51835334  0.21807197    -0.33200
S992        S  0.19673122  0.90372936  0.14128768    -0.33200
H993        H  0.22812410  0.92304930  0.13130214     0.28200
H994        H  0.18461290  0.00673879  0.25542969     0.28200
H995        H  0.21536404  0.51532122  0.15218376     0.18800
H996        H  0.15952971  0.90518514  0.20191544     0.18800
C997        C  0.09543965  0.82512137  0.98124148    -0.07100
C998        C  0.10772365  0.84119980  0.01593201    -0.18200
C999        C  0.13086151  0.87369448  0.01759551     0.10100
C1000       C  0.14427097  0.89161900  0.98386239    -0.07000
C1001       C  0.13104106  0.87578800  0.94934180    -0.18200
C1002       C  0.10686685  0.84400033  0.94763260     0.10200
S1003       S  0.14249837  0.89053744  0.06403559    -0.33200
S1004       S  0.09135024  0.82953312  0.90098323    -0.33200
H1005       H  0.05992340  0.81600179  0.91253352     0.28200
H1006       H  0.13953068  0.91780583  0.05453706     0.28200
H1007       H  0.09938985  0.82827744  0.04240428     0.18800
H1008       H  0.13974431  0.88836774  0.92274193     0.18800
C1009       C  0.33843271  0.58512266  0.02215161    -0.07100
C1010       C  0.35029893  0.60158790  0.98748937    -0.18200
C1011       C  0.38017620  0.62865992  0.98475832     0.10100
C1012       C  0.39996817  0.64068187  0.01734419    -0.07000
C1013       C  0.38880961  0.62335182  0.05150925    -0.18200
C1014       C  0.35934087  0.59583849  0.05404591     0.10200
S1015       S  0.39043154  0.64815898  0.93915479    -0.33200
S1016       S  0.35045659  0.57521002  0.09906503    -0.33200
H1017       H  0.33750008  0.54498993  0.08261806     0.28200
H1018       H  0.40089733  0.67848973  0.95423976     0.28200
H1019       H  0.33554535  0.59428247  0.96227671     0.18800
H1020       H  0.40336386  0.63132056  0.07686256     0.18800
C1021       C  0.25313897  0.61554952  0.00923482    -0.07100
C1022       C  0.24442004  0.63018638  0.03769459    -0.18200
C1023       C  0.25839349  0.66321034  0.04084255     0.10100
C1024       C  0.28215711  0.68261859  0.01525019    -0.07000
C1025       C  0.28960050  0.66802789  0.98548422    -0.18200
C1026       C  0.27527439  0.63500053  0.98199511     0.10200
S1027       S  0.24407397  0.67909533  0.07728123    -0.33200
S1028       S  0.28829112  0.61924494  0.94403323    -0.33200
H1029       H  0.25778157  0.59993301  0.93030387     0.28200
H1030       H  0.27204464  0.69035031  0.09868916     0.28200
H1031       H  0.22739484  0.61568209  0.05867844     0.18800
H1032       H  0.30720459  0.68246078  0.96503109     0.18800
C1033       C  0.25037191  0.83600240  0.99148147    -0.07100
C1034       C  0.23199809  0.84017242  0.01892715    -0.18200
C1035       C  0.23156433  0.86898806  0.02263819     0.10100
C1036       C  0.24906765  0.89426970  0.99742010    -0.07000
C1037       C  0.26881889  0.89048229  0.97125146    -0.18200
C1038       C  0.27007961  0.86189478  0.96849046     0.10200
S1039       S  0.20668075  0.87094858  0.05857438    -0.33200
S1040       S  0.29749310  0.86020835  0.93553494    -0.33200
H1041       H  0.30351658  0.83828481  0.95668687     0.28200
H1042       H  0.23213967  0.89598426  0.07666424     0.28200
H1043       H  0.21708492  0.82048087  0.03700823     0.18800
H1044       H  0.28305285  0.90981429  0.95229772     0.18800
C1045       C  0.20414340  0.55724592  0.80804155    -0.07100
C1046       C  0.23563063  0.56339208  0.81273347    -0.18200
C1047       C  0.24561784  0.55145440  0.84413111     0.10100
C1048       C  0.22378951  0.53268799  0.87193536    -0.07000
C1049       C  0.19276028  0.52735430  0.86811457    -0.18200
C1050       C  0.18264643  0.53943475  0.83709958     0.10200
S1051       S  0.28618454  0.55990641  0.84605159    -0.33200
S1052       S  0.14180286  0.02942444  0.83441126    -0.33200
H1053       H  0.13269071  0.51412079  0.87013721     0.28200
H1054       H  0.28144918  0.53199329  0.86528200     0.28200
H1055       H  0.25255648  0.57683776  0.79114807     0.18800
H1056       H  0.17651868  0.01286794  0.88911960     0.18800
C1057       C  0.27582685  0.57270897  0.64810570    -0.07100
C1058       C  0.29472593  0.58441421  0.68098854    -0.18200
C1059       C  0.32689633  0.59187364  0.68197047     0.10100
C1060       C  0.34194652  0.58891081  0.64875760    -0.07000
C1061       C  0.32234793  0.57538022  0.61669351    -0.18200
C1062       C  0.29003072  0.56691983  0.61621904     0.10200
S1063       S  0.34705524  0.60525256  0.72676190    -0.33200
S1064       S  0.26808833  0.54832923  0.57381302    -0.33200
H1065       H  0.23981443  0.52951889  0.59267337     0.28200
H1066       H  0.36129549  0.58533007  0.72558448     0.28200
H1067       H  0.28459446  0.58876084  0.70607170     0.18800
H1068       H  0.33231613  0.57164692  0.59109997     0.18800
C1069       C  0.08058686  0.56432167  0.68510426    -0.07100
C1070       C  0.08006129  0.58485161  0.71330965    -0.18200
C1071       C  0.05805116  0.59679887  0.71281556     0.10100
C1072       C  0.03519297  0.58861423  0.68333247    -0.07000
C1073       C  0.03634228  0.56911938  0.65426135    -0.18200
C1074       C  0.05799798  0.55659196  0.65511413     0.10200
S1075       S  0.06034971  0.62245422  0.75114014    -0.33200
S1076       S  0.05332626  0.52846070  0.61885078    -0.33200
H1077       H  0.05429718  0.50601581  0.64462891     0.28200
H1078       H  0.04775258  0.63939700  0.73027221     0.28200
H1079       H  0.09693025  0.59160522  0.73650596     0.18800
H1080       H  0.01855162  0.56147948  0.63205435     0.18800
C1081       C  0.51124078  0.89248838  0.67829400    -0.07100
C1082       C  0.02898523  0.89747503  0.71228660    -0.18200
C1083       C  0.05970334  0.92144782  0.71483274     0.10100
C1084       C  0.07292741  0.94146514  0.68317500    -0.07000
C1085       C  0.05735056  0.93343788  0.64793989    -0.19100
C1086       C  0.02673235  0.90900782  0.64496941     0.10200
S1087       S  0.08030936  0.92596878  0.75948002    -0.33200
S1088       S  0.50776292  0.90110772  0.59843954    -0.33200
H1089       H  0.53052591  0.92777058  0.57930065     0.28200
H1090       H  0.11034055  0.93942171  0.74342920     0.28200
H1091       H  0.01833832  0.88375154  0.73766761     0.18800
H1092       H  0.06826937  0.94791765  0.62319115     0.18800
C1093       C  0.28014557  0.73743771  0.65798970    -0.07100
C1094       C  0.28260261  0.71967066  0.68873659    -0.18200
C1095       C  0.26583431  0.68677840  0.68884558     0.10100
C1096       C  0.24448403  0.67150367  0.65873816    -0.07000
C1097       C  0.23906903  0.69000674  0.63083860    -0.18200
C1098       C  0.25691828  0.72278030  0.62998030     0.10200
S1099       S  0.27635034  0.66616617  0.72514689    -0.33200
S1100       S  0.25069882  0.74453556  0.59116570    -0.33200
H1101       H  0.26458793  0.77404777  0.60935300     0.28200
H1102       H  0.28153763  0.64703752  0.69906257     0.28200
H1103       H  0.30078403  0.73101473  0.71010105     0.18800
H1104       H  0.22180046  0.67884781  0.60848823     0.18800
C1105       C  0.13512800  0.50705754  0.53624404    -0.07100
C1106       C  0.11366831  0.97485844  0.53975804    -0.18200
C1107       C  0.09997974  0.95564617  0.50784216     0.10100
C1108       C  0.10777363  0.96870781  0.47078727    -0.07000
C1109       C  0.12888024  0.00112164  0.46706886    -0.18200
C1110       C  0.14189841  0.52038246  0.49926148     0.10200
S1111       S  0.07253185  0.91473337  0.51633901    -0.33200
S1112       S  0.16695172  0.56194139  0.49079256    -0.33200
H1113       H  0.15777465  0.57241192  0.52311859     0.28200
H1114       H  0.05421079  0.91137825  0.48351056     0.28200
H1115       H  0.10763461  0.96438102  0.56791280     0.18800
H1116       H  0.13515033  0.51148757  0.43931681     0.18800
O1117       O  0.66608710  0.06223313  0.76639065    -0.81800
O1118       O  0.63092662  0.02381011  0.59814182    -0.66500
O1119       O  0.66300458  0.03283705  0.69920359    -1.13100
C1120       C  0.72797848  0.13678375  0.65459275     1.05100
O1121       O  0.67872118  0.04349458  0.57458274    -0.79700
O1122       O  0.73496990  0.07904620  0.61522634    -0.67300
Ni1123     Ni  0.63517856  0.02568063  0.74064400     1.34900
C1124       C  0.74357942  0.07119348  0.64634849     0.83800
O1125       O  0.61677887  0.48525770  0.65821281    -0.80300
O1126       O  0.60307984  0.48786724  0.71826884    -0.90500
C1127       C  0.64906434  0.02612912  0.57119563     0.83400
O1128       O  0.61516431  0.05035422  0.72199096    -0.68700
O1129       O  0.71899075  0.12609477  0.62099315    -0.88000
C1130       C  0.60402686  0.05108388  0.68907435     0.84200
C1131       C  0.59970371  0.47312979  0.68712259     1.05800
H1132       H  0.66354964  0.08391928  0.64488935     0.37600
O1133       O  0.67463649  0.07147101  0.64414440    -1.10700
O1134       O  0.72661276  0.06410334  0.67612574    -0.67300
Ni1135     Ni  0.69461658  0.07567103  0.69254743     1.26300
O1136       O  0.61221672  0.04080266  0.66012753    -0.67600
O1137       O  0.72300895  0.11933207  0.68428553    -0.79900
C1138       C  0.69389814  0.06644611  0.77113110     0.83600
O1139       O  0.71202728  0.07626393  0.74270534    -0.67000
Ni1140     Ni  0.69909897  0.08460292  0.59958759     1.27400
Ni1141     Ni  0.64512796  0.02827259  0.64966948     1.26100
H1142       H  0.67259252  0.01904073  0.70206084     0.38100
O1143       O  0.74786855  0.00229003  0.10283288    -0.81800
O1144       O  0.75220841  0.03559783  0.92947054    -0.66500
O1145       O  0.72643622  0.00934601  0.03163140    -1.13100
C1146       C  0.74372698  0.42242738  0.99324606     1.05100
O1147       O  0.71586975  0.48822538  0.91104243    -0.79700
O1148       O  0.68949592  0.43047845  0.95155270    -0.67300
Ni1149     Ni  0.74795642  0.03684225  0.07327226     1.34900
C1150       C  0.67455062  0.42373617  0.98268599     0.83800
O1151       O  0.73764208  0.06308408  0.98621706    -0.80300
O1152       O  0.74880672  0.07342423  0.04820830    -0.90500
C1153       C  0.73184413  0.01811161  0.90527147     0.83400
O1154       O  0.79101412  0.05154641  0.05757385    -0.68700
O1155       O  0.74570263  0.43366723  0.95942500    -0.88000
C1156       C  0.80350542  0.06055996  0.02487859     0.84200
C1157       C  0.74519656  0.08169680  0.01456337     1.05800
H1158       H  0.76845686  0.49318714  0.98118932     0.37600
O1159       O  0.74633239  0.48700114  0.97973569    -1.10700
O1160       O  0.68562122  0.44232981  0.01144482    -0.67300
Ni1161     Ni  0.72955902  0.46991976  0.02813878     1.26300
O1162       O  0.78679540  0.05104576  0.99437972    -0.67600
O1163       O  0.73638729  0.43337891  0.02240235    -0.79900
C1164       C  0.72391904  0.47517163  0.10693540     0.83600
O1165       O  0.71332119  0.45660496  0.07871325    -0.67000
Ni1166     Ni  0.73102074  0.46120846  0.93640970     1.27400
Ni1167     Ni  0.74186753  0.02503822  0.98190112     1.26100
H1168       H  0.70457978  0.00432504  0.03246403     0.38100
O1169       O  0.60142074  0.42425087  0.43411990    -0.81800
O1170       O  0.64222545  0.42405353  0.26563426    -0.66500
O1171       O  0.63178079  0.44640372  0.36621616    -1.13100
C1172       C  0.53295169  0.42842965  0.31213389     1.05100
O1173       O  0.62926306  0.46028638  0.24397535    -0.79700
O1174       O  0.59399348  0.48499379  0.27912648    -0.67300
Ni1175     Ni  0.63659983  0.42402364  0.40964235     1.34900
C1176       C  0.59985953  0.49879447  0.31108454     0.83800
O1177       O  0.67821109  0.43821936  0.32823833    -0.80300
O1178       O  0.67292231  0.42284001  0.38943583    -0.90500
C1179       C  0.64507998  0.44508737  0.24097281     0.83400
O1180       O  0.61044373  0.38185462  0.39164576    -0.68700
O1181       O  0.54483730  0.42793446  0.28003788    -0.88000
C1182       C  0.60899273  0.36992975  0.35908033     0.84200
C1183       C  0.68781463  0.42982651  0.35821100     1.05800
H1184       H  0.58135121  0.40468821  0.30856683     0.37600
O1185       O  0.59544923  0.42713437  0.30882162    -1.10700
O1186       O  0.60614577  0.48664709  0.34060378    -0.67300
Ni1187     Ni  0.59046190  0.44242383  0.35639649     1.26300
O1188       O  0.61990655  0.38739136  0.32932078    -0.67600
O1189       O  0.54816426  0.43531219  0.34399836    -0.79900
C1190       C  0.59804958  0.44906226  0.43575671     0.83600
O1191       O  0.58943743  0.45857808  0.40599054    -0.67000
Ni1192     Ni  0.58707303  0.44375330  0.26335979     1.27400
Ni1193     Ni  0.63693529  0.43279351  0.31736444     1.26100
H1194       H  0.64655010  0.46852945  0.36881827     0.38100
O1195       O  0.88434288  0.33574996  0.55961110    -0.81800
O1196       O  0.85740652  0.28693824  0.73165591    -0.66500
O1197       O  0.87142771  0.32970288  0.63628672    -1.13100
C1198       C  0.97671654  0.37461397  0.68099264     1.05100
O1199       O  0.88367517  0.33255978  0.76099444    -0.79700
O1200       O  0.92067842  0.38790696  0.72409781    -0.67300
Ni1201     Ni  0.85559981  0.30317710  0.59275012     1.34900
C1202       C  0.91908533  0.40018948  0.69241123     0.83800
O1203       O  0.82003601  0.28699577  0.67575972    -0.80300
O1204       O  0.82239378  0.26856265  0.61916134    -0.90500
C1205       C  0.86239057  0.30385299  0.76076894     0.83400
O1206       O  0.88398063  0.28607304  0.60362083    -0.68700
O1207       O  0.96507660  0.36848926  0.71440888    -0.88000
C1208       C  0.88356529  0.27093962  0.63406870     0.84200
C1209       C  0.80806570  0.26684526  0.64979076     1.05800
H1210       H  0.91578698  0.31281078  0.68876671     0.37600
O1211       O  0.90766230  0.32786204  0.68965769    -1.10700
O1212       O  0.91587152  0.38661147  0.66092996    -0.67300
Ni1213     Ni  0.91614511  0.34962879  0.64226470     1.26300
O1214       O  0.86850104  0.27190145  0.66322472    -0.67600
O1215       O  0.96021644  0.36807500  0.65057004    -0.79900
C1216       C  0.90684014  0.36336989  0.56424835     0.83600
O1217       O  0.92314410  0.37194748  0.59461986    -0.67000
Ni1218     Ni  0.92387350  0.35014361  0.73577075     1.27400
Ni1219     Ni  0.86387000  0.30729167  0.68338918     1.26100
H1220       H  0.86338659  0.34487984  0.63676582     0.38100
O1221       O  0.80567522  0.27699274  0.09824058    -0.81800
O1222       O  0.79874697  0.25520214  0.92033743    -0.66500
O1223       O  0.79963060  0.28320228  0.02089402    -1.13100
C1224       C  0.69167920  0.22368499  0.01093629     1.05100
O1225       O  0.76030837  0.26433808  0.89962943    -0.79700
O1226       O  0.74466737  0.29271796  0.95437324    -0.67300
Ni1227     Ni  0.82792765  0.27665951  0.05418250     1.34900
C1228       C  0.74746950  0.30421482  0.98726834     0.83800
O1229       O  0.84211401  0.29737075  0.96361065    -0.80300
O1230       O  0.85600795  0.27917723  0.01474394    -0.90500
C1231       C  0.78508776  0.26198009  0.89369024     0.83400
O1232       O  0.80276112  0.23191300  0.04852357    -0.68700
O1233       O  0.69688196  0.23452242  0.97690494    -0.88000
C1234       C  0.79774517  0.21784646  0.01679270     0.84200
C1235       C  0.86244234  0.29414357  0.98320389     1.05800
H1236       H  0.75120364  0.22066916  0.97646245     0.37600
O1237       O  0.75637710  0.24278911  0.97730222    -1.10700
O1238       O  0.74689655  0.28911564  0.01749685    -0.67300
Ni1239     Ni  0.75624149  0.25498393  0.02914066     1.26300
O1240       O  0.80616440  0.23357571  0.98570278    -0.67600
O1241       O  0.71300320  0.22666055  0.03469319    -0.79900
C1242       C  0.77966261  0.27625287  0.10549893     0.83600
O1243       O  0.75742663  0.26789170  0.08116156    -0.67000
Ni1244     Ni  0.73029246  0.24964359  0.94083326     1.27400
Ni1245     Ni  0.79937026  0.26933169  0.97028437     1.26100
H1246       H  0.80411633  0.30515827  0.02098957     0.38100
O1247       O  0.84472391  0.39468222  0.43638516    -0.81800
O1248       O  0.79144494  0.34406044  0.27177984    -0.66500
O1249       O  0.83431476  0.36422220  0.36714528    -1.13100
C1250       C  0.88629375  0.46468243  0.30728889     1.05100
O1251       O  0.83658434  0.36569524  0.24158617    -0.79700
O1252       O  0.89354194  0.40884184  0.27155645    -0.67300
Ni1253     Ni  0.81044267  0.35966129  0.41121654     1.34900
C1254       C  0.90382478  0.40056927  0.30088735     0.83800
O1255       O  0.78799763  0.31186078  0.33554103    -0.80300
O1256       O  0.77424395  0.32293422  0.39144234    -0.90500
C1257       C  0.80767045  0.34558133  0.24313059     0.83400
O1258       O  0.79547489  0.38779046  0.39124154    -0.68700
O1259       O  0.87185360  0.45153227  0.27657197    -0.88000
C1260       C  0.77900869  0.38331442  0.36112568     0.84200
C1261       C  0.76947305  0.30467897  0.36317050     1.05800
H1262       H  0.82382080  0.40845216  0.31096431     0.37600
O1263       O  0.83602269  0.39727200  0.30874666    -1.10700
O1264       O  0.88917932  0.39272324  0.33191678    -0.67300
Ni1265     Ni  0.86155466  0.40662042  0.35296256     1.26300
O1266       O  0.77858597  0.36442052  0.33563084    -0.67600
O1267       O  0.88761304  0.44935615  0.33688679    -0.79900
C1268       C  0.87414504  0.40578059  0.43173543     0.83600
O1269       O  0.88598152  0.41313670  0.39876090    -0.67000
Ni1270     Ni  0.85435079  0.40863215  0.26033851     1.27400
Ni1271     Ni  0.81156768  0.35414641  0.32053051     1.26100
H1272       H  0.84550839  0.35193093  0.37018578     0.38100
O1273       O  0.93108460  0.09487022  0.56374333    -0.81800
O1274       O  0.93634677  0.14086192  0.73304304    -0.66500
O1275       O  0.95362474  0.12702889  0.63165791    -1.13100
C1276       C  0.93520679  0.02779460  0.68749082     1.05100
O1277       O  0.97179801  0.12618911  0.75270044    -0.79700
O1278       O  0.99251619  0.08695682  0.71844916    -0.67300
Ni1279     Ni  0.92783741  0.12853855  0.59035976     1.34900
C1280       C  0.50623943  0.09350156  0.68668138     0.83800
O1281       O  0.94678903  0.17498228  0.66881558    -0.80300
O1282       O  0.92379243  0.16373388  0.61131315    -0.90500
C1283       C  0.95681853  0.14202843  0.75730393     0.83400
O1284       O  0.88814765  0.09926843  0.61259662    -0.68700
O1285       O  0.93458424  0.03986384  0.71950209    -0.88000
C1286       C  0.87751366  0.10181599  0.64474859     0.84200
C1287       C  0.93322842  0.18106660  0.64081007     1.05800
H1288       H  0.91416005  0.07781532  0.69099442     0.37600
O1289       O  0.93641033  0.09184692  0.69032796    -1.10700
O1290       O  0.99470300  0.10156929  0.65775351    -0.67300
Ni1291     Ni  0.95053964  0.08586937  0.64283744     1.26300
O1292       O  0.89640241  0.11652205  0.67218025    -0.67600
O1293       O  0.94371719  0.04368829  0.65614333    -0.79900
C1294       C  0.95546440  0.09084005  0.56301931     0.83600
O1295       O  0.96555598  0.08370382  0.59340117    -0.67000
Ni1296     Ni  0.95297725  0.08301435  0.73521884     1.27400
Ni1297     Ni  0.94209287  0.13371767  0.68099852     1.26100
H1298       H  0.97518576  0.14215221  0.62700238     0.38100
O1299       O  0.51805261  0.23518138  0.90221893    -0.81800
O1300       O  0.53644568  0.24473250  0.07747648    -0.66500
O1301       O  0.51521541  0.21357574  0.97716763    -1.13100
C1302       C  0.94206959  0.25153443  0.99286771     1.05100
O1303       O  0.98756837  0.21413862  0.09468455    -0.79700
O1304       O  0.93468275  0.19007906  0.04670522    -0.67300
Ni1305     Ni  0.54588939  0.22906674  0.93795399     1.34900
C1306       C  0.92998817  0.17251173  0.01791605     0.83800
O1307       O  0.55968711  0.21811384  0.03078260    -0.80300
O1308       O  0.57439574  0.22109159  0.96983288    -0.90500
C1309       C  0.51726002  0.22606860  0.10154660     0.83400
O1310       O  0.56697015  0.27399774  0.95002314    -0.68700
O1311       O  0.94647840  0.25071861  0.02898599    -0.88000
C1312       C  0.57236729  0.28925071  0.98110391     0.84200
C1313       C  0.57629258  0.21517683  0.00511585     1.05800
H1314       H  0.50481033  0.26474612  0.01713721     0.37600
O1315       O  0.99552184  0.24231036  0.02067992    -1.10700
O1316       O  0.94932963  0.18157359  0.99017108    -0.67300
Ni1317     Ni  0.98124436  0.22368509  0.97236028     1.26300
O1318       O  0.55941983  0.27475021  0.01202917    -0.67600
O1319       O  0.95031586  0.23750500  0.96849200    -0.79900
C1320       C  0.99000373  0.21386956  0.89656272     0.83600
O1321       O  0.97023257  0.20570964  0.92309876    -0.67000
Ni1322     Ni  0.96665469  0.23192524  0.06073368     1.27400
Ni1323     Ni  0.52820747  0.23112050  0.02644169     1.26100
H1324       H  0.50705204  0.19088866  0.97915432     0.38100
O1325       O  0.57047223  0.16255960  0.23120475    -0.81800
O1326       O  0.52654995  0.11803198  0.39677572    -0.66500
O1327       O  0.53968051  0.15558714  0.29756630    -1.13100
C1328       C  0.63999710  0.21941428  0.35125357     1.05100
O1329       O  0.54359231  0.16555198  0.42170838    -0.79700
O1330       O  0.58132586  0.22453091  0.38692842    -0.67300
Ni1331     Ni  0.53425274  0.12986288  0.25400139     1.34900
C1332       C  0.57602703  0.23467892  0.35533826     0.83800
O1333       O  0.99089198  0.10632878  0.33407326    -0.80300
O1334       O  0.99660035  0.09574917  0.27374043    -0.90500
C1335       C  0.52804507  0.13543454  0.42462795     0.83400
O1336       O  0.55931007  0.11058568  0.27196757    -0.68700
O1337       O  0.62739918  0.20830660  0.38344555    -0.88000
C1338       C  0.55981505  0.09815159  0.30399344     0.84200
C1339       C  0.98047363  0.09049431  0.30376345     1.05800
H1340       H  0.58807981  0.15394015  0.35440717     0.37600
O1341       O  0.57540711  0.16478640  0.35485191    -1.10700
O1342       O  0.56899049  0.21801806  0.32525353    -0.67300
Ni1343     Ni  0.58175700  0.18723448  0.30783229     1.26300
O1344       O  0.54726517  0.10333207  0.33319823    -0.67600
O1345       O  0.62443746  0.21585074  0.32023896    -0.79900
C1346       C  0.57391653  0.19048238  0.22950632     0.83600
O1347       O  0.58435399  0.20758561  0.25885434    -0.67000
Ni1348     Ni  0.58548725  0.18726882  0.40107207     1.27400
Ni1349     Ni  0.53313176  0.13493870  0.34581992     1.26100
H1350       H  0.52608439  0.16535879  0.29493959     0.38100
C1351       C  0.53040384  0.21686339  0.13574919    -0.07100
C1352       C  0.56095575  0.23796637  0.14836280    -0.18200
C1353       C  0.57609837  0.23003673  0.17802326     0.10100
C1354       C  0.56048296  0.20035942  0.19647650    -0.07000
C1355       C  0.52997144  0.17926963  0.18411312    -0.18200
C1356       C  0.51497109  0.18693420  0.15408126     0.10200
S1357       S  0.61586128  0.25821388  0.18950815    -0.33200
S1358       S  0.97663445  0.15677486  0.13948388    -0.33200
H1359       H  0.98396899  0.15949416  0.10060603     0.28200
H1360       H  0.62561283  0.23572821  0.20088320     0.28200
H1361       H  0.57356294  0.26080125  0.13444963     0.18800
H1362       H  0.51759881  0.15637445  0.19799942     0.18800
C1363       C  0.96378463  0.16163628  0.79173371    -0.07100
C1364       C  0.95788785  0.14591139  0.82689163    -0.18200
C1365       C  0.96644507  0.16256803  0.86097552     0.10100
C1366       C  0.98079030  0.19604309  0.86047558    -0.07000
C1367       C  0.98669859  0.21198893  0.82525785    -0.18200
C1368       C  0.97852745  0.19514977  0.79088204     0.10200
S1369       S  0.96038627  0.13961554  0.90413377    -0.33200
S1370       S  0.48817053  0.21759747  0.74721253    -0.33200
H1371       H  0.99467431  0.19623413  0.72644285     0.28200
H1372       H  0.98964937  0.16006927  0.92023676     0.28200
H1373       H  0.94729384  0.12028881  0.82777910     0.18800
H1374       H  0.49766947  0.23747442  0.82457176     0.18800
C1375       C  0.97399558  0.09744623  0.52735148    -0.07100
C1376       C  0.50622184  0.11860684  0.52955823    -0.18200
C1377       C  0.52448121  0.13041479  0.49678911     0.10100
C1378       C  0.51061168  0.12080613  0.46035624    -0.07000
C1379       C  0.97876068  0.09848269  0.45814234    -0.18200
C1380       C  0.96043214  0.08672844  0.49105299     0.10200
S1381       S  0.56535671  0.15789790  0.50357540    -0.33200
S1382       S  0.91993817  0.05813536  0.48491603    -0.33200
H1383       H  0.91737624  0.04266480  0.52005903     0.28200
H1384       H  0.57597482  0.14890899  0.47125373     0.28200
H1385       H  0.51703971  0.12721362  0.55708772     0.18800
H1386       H  0.96784029  0.09061746  0.43050937     0.18800
C1387       C  0.67452278  0.23751362  0.35119521    -0.07100
C1388       C  0.69048296  0.23902040  0.38578256    -0.18200
C1389       C  0.72237167  0.25872148  0.38990896     0.10100
C1390       C  0.73896578  0.27725922  0.35880045    -0.07000
C1391       C  0.72406888  0.27359320  0.32328660    -0.18200
C1392       C  0.69202438  0.25397072  0.31889139     0.10200
S1393       S  0.74025853  0.25987220  0.43576038    -0.33200
S1394       S  0.67461901  0.25184668  0.27227569    -0.33200
H1395       H  0.70208682  0.27206063  0.25278556     0.28200
H1396       H  0.77051719  0.26921649  0.42188090     0.28200
H1397       H  0.67801961  0.22551406  0.41050446     0.18800
H1398       H  0.73721922  0.28796791  0.29943639     0.18800
C1399       C  0.94943569  0.06273880  0.30435833    -0.07100
C1400       C  0.93752090  0.04841935  0.33962355    -0.18200
C1401       C  0.91450469  0.01692908  0.34182048     0.10100
C1402       C  0.90394900  0.49942522  0.30745240    -0.07000
C1403       C  0.91220022  0.01537345  0.27270160    -0.18200
C1404       C  0.93432040  0.04700460  0.27061523     0.10200
S1405       S  0.89970131  0.49969503  0.38758398    -0.33200
S1406       S  0.94287020  0.06527419  0.22398899    -0.33200
H1407       H  0.95023687  0.09572220  0.23698642     0.28200
H1408       H  0.91918085  0.52616811  0.40944640     0.28200
H1409       H  0.94781298  0.06108900  0.36559497     0.18800
H1410       H  0.90303116  0.50278185  0.24596009     0.18800
C1411       C  0.79352536  0.32262793  0.21207329    -0.07100
C1412       C  0.77629496  0.32864755  0.18344610    -0.18200
C1413       C  0.76852149  0.31175383  0.14922634     0.10100
C1414       C  0.77744560  0.28766986  0.14381020    -0.07000
C1415       C  0.79196999  0.27980054  0.17423964    -0.18200
C1416       C  0.80014566  0.29696929  0.20805156     0.10200
S1417       S  0.75058027  0.32461948  0.11230248    -0.33200
S1418       S  0.82101277  0.28638023  0.24382824    -0.33200
H1419       H  0.81153857  0.29774207  0.27498343     0.28200
H1420       H  0.77238734  0.32764298  0.08441402     0.28200
H1421       H  0.77099517  0.34824115  0.18653629     0.18800
H1422       H  0.79890602  0.26138236  0.17068006     0.18800
C1423       C  0.89262368  0.30232094  0.96688684    -0.07100
C1424       C  0.89159373  0.28084975  0.93963815    -0.18200
C1425       C  0.90907889  0.26454204  0.94559852     0.10100
C1426       C  0.92832513  0.27146614  0.97865351    -0.07000
C1427       C  0.93509517  0.29898661  0.99910407    -0.18200
C1428       C  0.91816934  0.31545709  0.99202163     0.10200
S1429       S  0.90323630  0.23301096  0.91356016    -0.33200
S1430       S  0.92466691  0.34833735  0.02179302    -0.33200
H1431       H  0.90477096  0.35710233  0.00062323     0.28200
H1432       H  0.88789528  0.24142595  0.88457394     0.28200
H1433       H  0.87286742  0.27229876  0.91857305     0.18800
H1434       H  0.95222869  0.30659899  0.02206771     0.18800
C1435       C  0.60006564  0.20574321  0.01673620    -0.07100
C1436       C  0.61942137  0.22076634  0.04802146    -0.18200
C1437       C  0.64906667  0.22248271  0.05120951     0.10100
C1438       C  0.65899732  0.20895120  0.02250085    -0.07000
C1439       C  0.63705527  0.18847826  0.99621643    -0.18200
C1440       C  0.60737534  0.18644438  0.99334027     0.10200
S1441       S  0.67441560  0.24571763  0.08915900    -0.33200
S1442       S  0.58081880  0.16094705  0.95753718    -0.33200
H1443       H  0.55339966  0.15685873  0.97576465     0.28200
H1444       H  0.69771415  0.26679965  0.06474969     0.28200
H1445       H  0.61309925  0.23428680  0.06737098     0.18800
H1446       H  0.64419433  0.17681484  0.97515973     0.18800
C1447       C  0.84122357  0.29116907  0.79339055    -0.07100
C1448       C  0.82485309  0.30742370  0.80449738    -0.18200
C1449       C  0.80388929  0.29657074  0.83472346     0.10100
C1450       C  0.80029202  0.26968639  0.85600046    -0.07000
C1451       C  0.81612162  0.25291956  0.84415125    -0.18200
C1452       C  0.83609035  0.26303437  0.81278950     0.10200
S1453       S  0.78383833  0.31914183  0.84583266    -0.33200
S1454       S  0.85511571  0.23968641  0.80002776    -0.33200
H1455       H  0.88274981  0.26498399  0.78635045     0.28200
H1456       H  0.75398410  0.29294305  0.84225711     0.28200
H1457       H  0.82811032  0.32859413  0.78908430     0.18800
H1458       H  0.81360077  0.23225072  0.86013475     0.18800
C1459       C  0.92779806  0.49383195  0.68738397    -0.07100
C1460       C  0.94445214  0.48488204  0.66230003    -0.18200
C1461       C  0.94253709  0.45489749  0.66430199     0.10100
C1462       C  0.92253634  0.43248139  0.69105154    -0.07000
C1463       C  0.90517464  0.44093626  0.71562896    -0.18200
C1464       C  0.90746599  0.47138487  0.71406543     0.10200
S1465       S  0.96824786  0.44770594  0.63389005    -0.33200
S1466       S  0.88324837  0.48054577  0.74502827    -0.33200
H1467       H  0.87022276  0.95217219  0.76542420     0.28200
H1468       H  0.97761454  0.43313397  0.66282483     0.28200
H1469       H  0.96061081  0.50198756  0.64235481     0.18800
H1470       H  0.88947927  0.42347725  0.73555778     0.18800
C1471       C  0.90003214  0.25086069  0.63639061    -0.07100
C1472       C  0.89734955  0.23335521  0.67014194    -0.18200
C1473       C  0.91016253  0.21226347  0.67361138     0.10100
C1474       C  0.92579835  0.20794103  0.64243029    -0.07000
C1475       C  0.92974555  0.22628232  0.60944171    -0.18200
C1476       C  0.91789448  0.24809244  0.60637227     0.10200
S1477       S  0.90420398  0.18934367  0.71693262    -0.33200
S1478       S  0.92661764  0.27131830  0.56323159    -0.33200
H1479       H  0.93857466  0.30025868  0.58263813     0.28200
H1480       H  0.88708760  0.20166216  0.73645524     0.28200
H1481       H  0.88446771  0.23556224  0.69380291     0.18800
H1482       H  0.94196179  0.22329514  0.58549892     0.18800
C1483       C  0.91046569  0.38685825  0.53419220    -0.07100
C1484       C  0.92497845  0.38709273  0.49991121    -0.18200
C1485       C  0.91759043  0.39863181  0.46602863     0.10100
C1486       C  0.89366783  0.40809590  0.46617348    -0.07000
C1487       C  0.88254713  0.41170128  0.50143115    -0.18200
C1488       C  0.89108531  0.40177291  0.53525617     0.10200
S1489       S  0.93666809  0.39810267  0.42263429    -0.33200
S1490       S  0.87264095  0.40432549  0.57828715    -0.33200
H1491       H  0.89839879  0.40967436  0.60180115     0.28200
H1492       H  0.96012380  0.39221207  0.43967629     0.28200
H1493       H  0.94011652  0.37598425  0.49909231     0.18800
H1494       H  0.86500596  0.41989100  0.50238897     0.18800
C1495       C  0.71599471  0.42495659  0.35630238    -0.07100
C1496       C  0.72016807  0.41079841  0.32371986    -0.18200
C1497       C  0.74147129  0.39840389  0.32338797     0.10100
C1498       C  0.75903273  0.39963654  0.35681988    -0.07000
C1499       C  0.75644683  0.41611577  0.38830413    -0.18200
C1500       C  0.73552978  0.42887994  0.38832130     0.10200
S1501       S  0.74392007  0.38062268  0.27960936    -0.33200
S1502       S  0.73461234  0.44942802  0.43050858    -0.33200
H1503       H  0.72619915  0.47055171  0.41134131     0.28200
H1504       H  0.77672395  0.39774921  0.27821812     0.28200
H1505       H  0.70553468  0.40785307  0.29881060     0.18800
H1506       H  0.77024072  0.41847751  0.41382062     0.18800
C1507       C  0.49986372  0.42159887  0.31084212    -0.07100
C1508       C  0.97686855  0.39355953  0.32845837    -0.18200
C1509       C  0.94489777  0.38444363  0.32288939     0.10100
C1510       C  0.93573908  0.40379564  0.30053841    -0.07000
C1511       C  0.95875226  0.43083748  0.28268044    -0.18200
C1512       C  0.99040248  0.43974121  0.28801813     0.10200
S1513       S  0.91696234  0.34729508  0.34345818    -0.33200
S1514       S  0.51792714  0.47668954  0.26577134    -0.33200
H1515       H  0.53634315  0.48642918  0.29888051     0.28200
H1516       H  0.89329632  0.34111477  0.31599855     0.28200
H1517       H  0.98385630  0.37850722  0.34510151     0.18800
H1518       H  0.95217320  0.44629382  0.26618741     0.18800
C1519       C  0.59632627  0.02857248  0.31343575    -0.07100
C1520       C  0.60160956  0.04753869  0.28053306    -0.18200
C1521       C  0.59154311  0.07112137  0.27703353     0.10100
C1522       C  0.57466213  0.07598458  0.30705891    -0.07000
C1523       C  0.57073526  0.05799377  0.34056283    -0.18200
C1524       C  0.58142312  0.03502872  0.34416971     0.10200
S1525       S  0.60086659  0.09451720  0.23367712    -0.33200
S1526       S  0.57247871  0.01276353  0.38780645    -0.33200
H1527       H  0.60409689  0.02083869  0.39446442     0.28200
H1528       H  0.61230001  0.07706167  0.21310991     0.28200
H1529       H  0.61302743  0.04315818  0.25680234     0.18800
H1530       H  0.55833593  0.06113646  0.36416772     0.18800
C1531       C  0.59599488  0.33432468  0.35607701    -0.07100
C1532       C  0.60663537  0.32224302  0.32662896    -0.18200
C1533       C  0.59932043  0.28995502  0.32498339     0.10100
C1534       C  0.58042621  0.26820805  0.35325770    -0.07000
C1535       C  0.56921139  0.28004713  0.38237614    -0.18200
C1536       C  0.57610266  0.31228246  0.38366399     0.10200
S1537       S  0.61720988  0.27774391  0.28859281    -0.33200
S1538       S  0.55812604  0.32340911  0.42100592    -0.33200
H1539       H  0.55208355  0.34443796  0.39797716     0.28200
H1540       H  0.63285286  0.30701762  0.26954908     0.28200
H1541       H  0.62217935  0.33856398  0.30566505     0.18800
H1542       H  0.55486348  0.26399502  0.40441995     0.18800
C1543       C  0.70702581  0.46700551  0.14416485    -0.07100
C1544       C  0.70399548  0.49112320  0.16321293    -0.18200
C1545       C  0.68527650  0.48483428  0.19556869     0.10100
C1546       C  0.66801822  0.45337362  0.20931780    -0.07000
C1547       C  0.67220969  0.42943678  0.19153524    -0.18200
C1548       C  0.69168425  0.43596197  0.15969778     0.10200
S1549       S  0.68436101  0.01819177  0.21836340    -0.33200
S1550       S  0.69727434  0.40398724  0.14166720    -0.33200
H1551       H  0.72859341  0.42338156  0.13143516     0.28200
H1552       H  0.68487092  0.50680711  0.25572384     0.28200
H1553       H  0.71520296  0.01524737  0.15223477     0.18800
H1554       H  0.66000307  0.40536160  0.20227844     0.18800
C1555       C  0.59543397  0.32518136  0.98147638    -0.07100
C1556       C  0.60766340  0.34121997  0.01620663    -0.18200
C1557       C  0.63079086  0.37371213  0.01793367     0.10100
C1558       C  0.64420707  0.39166439  0.98422380    -0.07000
C1559       C  0.63101327  0.37587297  0.94967355    -0.18200
C1560       C  0.60688627  0.34408319  0.94789931     0.10200
S1561       S  0.64240694  0.39051191  0.06440526    -0.33200
S1562       S  0.59149695  0.32963642  0.90120063    -0.33200
H1563       H  0.56003874  0.31609914  0.91262425     0.28200
H1564       H  0.63951659  0.41782523  0.05491538     0.28200
H1565       H  0.59930381  0.32826609  0.04265491     0.18800
H1566       H  0.63972882  0.38847739  0.92309080     0.18800
C1567       C  0.83836221  0.08518680  0.02209888    -0.07100
C1568       C  0.85023905  0.10161290  0.98741200    -0.18200
C1569       C  0.88011858  0.12868954  0.98465207     0.10100
C1570       C  0.89991547  0.14075144  0.01722932    -0.07000
C1571       C  0.88874404  0.12346190  0.05142013    -0.18200
C1572       C  0.85926851  0.09595432  0.05399057     0.10200
S1573       S  0.89036740  0.14814116  0.93902007    -0.33200
S1574       S  0.85037325  0.07539793  0.09905423    -0.33200
H1575       H  0.83743854  0.04515285  0.08267722     0.28200
H1576       H  0.90091620  0.17849833  0.95405810     0.28200
H1577       H  0.83549163  0.09427113  0.96219638     0.18800
H1578       H  0.90329479  0.13146009  0.07677287     0.18800
C1579       C  0.75303447  0.11555310  0.00913271    -0.07100
C1580       C  0.74432486  0.13018700  0.03761142    -0.18200
C1581       C  0.75833666  0.16321257  0.04081215     0.10100
C1582       C  0.78207326  0.18262884  0.01518941    -0.07000
C1583       C  0.78950586  0.16803894  0.98541366    -0.18200
C1584       C  0.77519348  0.13501395  0.98192342     0.10200
S1585       S  0.74415952  0.17908053  0.07742916    -0.33200
S1586       S  0.78830451  0.11927626  0.94403943    -0.33200
H1587       H  0.75782876  0.09997785  0.93020241     0.28200
H1588       H  0.77223073  0.19037111  0.09864098     0.28200
H1589       H  0.72730682  0.11567710  0.05859934     0.18800
H1590       H  0.80711292  0.18247267  0.96496428     0.18800
C1591       C  0.75014663  0.33594659  0.99122161    -0.07100
C1592       C  0.73193206  0.34017333  0.01884677    -0.18200
C1593       C  0.73160409  0.36903215  0.02268840     0.10100
C1594       C  0.74901058  0.39428205  0.99738901    -0.07000
C1595       C  0.76859107  0.39043028  0.97102037    -0.18200
C1596       C  0.76977303  0.36181290  0.96814704     0.10200
S1597       S  0.70699658  0.37110802  0.05892152    -0.33200
S1598       S  0.79699092  0.36005842  0.93493948    -0.33200
H1599       H  0.80316206  0.33820653  0.95603651     0.28200
H1600       H  0.73259378  0.39615212  0.07680859     0.28200
H1601       H  0.71708558  0.32050614  0.03699797     0.18800
H1602       H  0.78275180  0.40973799  0.95199675     0.18800
C1603       C  0.70415026  0.05724813  0.80802243    -0.07100
C1604       C  0.73562768  0.06333978  0.81265562    -0.18200
C1605       C  0.74562608  0.05141800  0.84405494     0.10100
C1606       C  0.72381127  0.03270092  0.87189434    -0.07000
C1607       C  0.69280239  0.02744089  0.86814529    -0.18200
C1608       C  0.68268705  0.03953349  0.83714925     0.10200
S1609       S  0.78618714  0.05984055  0.84594766    -0.33200
S1610       S  0.64185264  0.53052704  0.83511370    -0.33200
H1611       H  0.63307149  0.01533435  0.87092412     0.28200
H1612       H  0.78146175  0.03196349  0.86525918     0.28200
H1613       H  0.75253481  0.07673145  0.79102830     0.18800
H1614       H  0.67631942  0.51334206  0.88957323     0.18800
C1615       C  0.77584847  0.07265627  0.64824716    -0.07100
C1616       C  0.79478373  0.08448336  0.68108335    -0.18200
C1617       C  0.82695882  0.09194909  0.68205214     0.10100
C1618       C  0.84197022  0.08887146  0.64886589    -0.07000
C1619       C  0.82233255  0.07521519  0.61686893    -0.18200
C1620       C  0.79001596  0.06675005  0.61641490     0.10200
S1621       S  0.84717605  0.10548373  0.72678390    -0.33200
S1622       S  0.76801987  0.04800210  0.57410240    -0.33200
H1623       H  0.73975945  0.02928703  0.59303781     0.28200
H1624       H  0.86141388  0.08555398  0.72572102     0.28200
H1625       H  0.78467748  0.08891878  0.70612936     0.18800
H1626       H  0.83226923  0.07138576  0.59130793     0.18800
C1627       C  0.58059349  0.06438689  0.68505340    -0.07100
C1628       C  0.58013489  0.08499427  0.71319904    -0.18200
C1629       C  0.55811918  0.09693666  0.71272337     0.10100
C1630       C  0.53521281  0.08870113  0.68329074    -0.07000
C1631       C  0.53629442  0.06912731  0.65427442    -0.18200
C1632       C  0.55792984  0.05657385  0.65513837     0.10200
S1633       S  0.56045122  0.12261885  0.75103287    -0.33200
S1634       S  0.55311118  0.02827564  0.61903018    -0.33200
H1635       H  0.55423910  0.00596359  0.64489768     0.28200
H1636       H  0.54778679  0.13951578  0.73019823     0.28200
H1637       H  0.59705010  0.09179689  0.73634739     0.18800
H1638       H  0.51845565  0.06143440  0.63212293     0.18800
C1639       C  0.01128077  0.39247744  0.67826527    -0.07100
C1640       C  0.52895297  0.39743139  0.71219004    -0.18200
C1641       C  0.55964967  0.42143285  0.71484542     0.10100
C1642       C  0.57290297  0.44153276  0.68326204    -0.07000
C1643       C  0.55735894  0.43360519  0.64799874    -0.19100
C1644       C  0.52675365  0.40917420  0.64492903     0.10200
S1645       S  0.58017530  0.42588452  0.75953954    -0.33200
S1646       S  0.00785598  0.40107605  0.59840297    -0.33200
H1647       H  0.03068268  0.42766957  0.57922741     0.28200
H1648       H  0.61023770  0.43938606  0.74357291     0.28200
H1649       H  0.51828571  0.38362301  0.73751198     0.18800
H1650       H  0.56829240  0.44816558  0.62330964     0.18800
C1651       C  0.78021633  0.23734667  0.65793145    -0.07100
C1652       C  0.78264300  0.21959124  0.68871147    -0.18200
C1653       C  0.76587283  0.18670125  0.68882877     0.10100
C1654       C  0.74453994  0.17142863  0.65870882    -0.07000
C1655       C  0.73915307  0.18992296  0.63077346    -0.18200
C1656       C  0.75701654  0.22268852  0.62989609     0.10200
S1657       S  0.77637988  0.16608685  0.72513789    -0.33200
S1658       S  0.75087051  0.24443105  0.59101180    -0.33200
H1659       H  0.76464081  0.27392302  0.60924749     0.28200
H1660       H  0.78157957  0.14696506  0.69905486     0.28200
H1661       H  0.80080936  0.23093841  0.71009173     0.18800
H1662       H  0.72190269  0.17876282  0.60840492     0.18800
C1663       C  0.63518125  0.00712208  0.53620552    -0.07100
C1664       C  0.61368338  0.47481631  0.53987423    -0.18200
C1665       C  0.60000055  0.45560961  0.50794345     0.10100
C1666       C  0.60774078  0.46869765  0.47088750    -0.07000
C1667       C  0.62878403  0.50113280  0.46719420    -0.18200
C1668       C  0.64220660  0.02038108  0.49920283     0.10200
S1669       S  0.57263400  0.41466613  0.51642727    -0.33200
S1670       S  0.66765755  0.06184761  0.49067169    -0.33200
H1671       H  0.65865177  0.07257692  0.52291459     0.28200
H1672       H  0.55431080  0.41125003  0.48358454     0.28200
H1673       H  0.60768862  0.46431885  0.56802364     0.18800
H1674       H  0.63558127  0.01141281  0.43925773     0.18800
O1675       O  0.66617567  0.56251155  0.76635442    -0.81800
O1676       O  0.63092909  0.52372968  0.59812816    -0.66500
O1677       O  0.66304771  0.53301551  0.69922865    -1.13100
C1678       C  0.72792717  0.63695032  0.65451546     1.05100
O1679       O  0.67870833  0.54363595  0.57445816    -0.79700
O1680       O  0.73492789  0.57925113  0.61512075    -0.67300
Ni1681     Ni  0.63524180  0.52593464  0.74067180     1.34900
C1682       C  0.74354797  0.57136933  0.64621412     0.83800
O1683       O  0.61668752  0.98517407  0.65804654    -0.80300
O1684       O  0.60303904  0.98762892  0.71816779    -0.90500
C1685       C  0.64906424  0.52613859  0.57112666     0.83400
O1686       O  0.61527134  0.55060967  0.72190103    -0.68700
O1687       O  0.71888574  0.62626241  0.62092156    -0.88000
C1688       C  0.60408084  0.55123938  0.68898575     0.84200
C1689       C  0.59963962  0.97296627  0.68695591     1.05800
H1690       H  0.66348296  0.58397871  0.64484155     0.37600
O1691       O  0.67460457  0.57156542  0.64408577    -1.10700
O1692       O  0.72660164  0.56426169  0.67601242    -0.67300
Ni1693     Ni  0.69462996  0.57583858  0.69248680     1.26300
O1694       O  0.61220727  0.54084101  0.66008854    -0.67600
O1695       O  0.72300268  0.61948675  0.68418072    -0.79900
C1696       C  0.69397363  0.56668279  0.77108231     0.83600
O1697       O  0.71209078  0.57648883  0.74264233    -0.67000
Ni1698     Ni  0.69902881  0.58475222  0.59950085     1.27400
Ni1699     Ni  0.64515696  0.52834452  0.64968982     1.26100
H1700       H  0.67265126  0.51923598  0.70214542     0.38100
O1701       O  0.74797551  0.50196855  0.10260430    -0.81800
O1702       O  0.75230369  0.53546441  0.92927966    -0.66500
O1703       O  0.72650725  0.50910456  0.03145497    -1.13100
C1704       C  0.74388335  0.92275710  0.99362797     1.05100
O1705       O  0.71585883  0.98829337  0.91130990    -0.79700
O1706       O  0.68967069  0.93056597  0.95187058    -0.67300
Ni1707     Ni  0.74801349  0.53653875  0.07316217     1.34900
C1708       C  0.67464718  0.92389546  0.98294340     0.83800
O1709       O  0.73790597  0.56298006  0.98614855    -0.80300
O1710       O  0.74887250  0.57316064  0.04820304    -0.90500
C1711       C  0.73190648  0.51804758  0.90505517     0.83400
O1712       O  0.79105639  0.55127103  0.05747993    -0.68700
O1713       O  0.74598517  0.93404018  0.95981374    -0.88000
C1714       C  0.80357514  0.56025176  0.02480205     0.84200
C1715       C  0.74540235  0.58152958  0.01455420     1.05800
H1716       H  0.76850089  0.99351148  0.98151704     0.37600
O1717       O  0.74636504  0.98726594  0.98000731    -1.10700
O1718       O  0.68562691  0.94258807  0.01162634    -0.67300
Ni1719     Ni  0.72954499  0.97019027  0.02837794     1.26300
O1720       O  0.78690406  0.55072104  0.99427085    -0.67600
O1721       O  0.73640225  0.93365533  0.02271826    -0.79900
C1722       C  0.72383572  0.97545786  0.10712367     0.83600
O1723       O  0.71327338  0.95688914  0.07890625    -0.67000
Ni1724     Ni  0.73115211  0.96142193  0.93672214     1.27400
Ni1725     Ni  0.74196713  0.52484764  0.98173244     1.26100
H1726       H  0.70465729  0.50410294  0.03227911     0.38100
O1727       O  0.60159422  0.92421876  0.43442706    -0.81800
O1728       O  0.64242299  0.92407411  0.26593061    -0.66500
O1729       O  0.63191810  0.94636911  0.36651633    -1.13100
C1730       C  0.53287584  0.92796454  0.31262569     1.05100
O1731       O  0.62900804  0.95996199  0.24416717    -0.79700
O1732       O  0.59363924  0.98447829  0.27936302    -0.67300
Ni1733     Ni  0.63675765  0.92397721  0.40991540     1.34900
C1734       C  0.59964632  0.99842975  0.31123112     0.83800
O1735       O  0.67846489  0.93834705  0.32855626    -0.80300
O1736       O  0.67307570  0.92277359  0.38968932    -0.90500
C1737       C  0.64501905  0.94496579  0.24119111     0.83400
O1738       O  0.61054998  0.88183943  0.39185616    -0.68700
O1739       O  0.54466193  0.92728242  0.28053231    -0.88000
C1740       C  0.60919754  0.86995936  0.35928594     0.84200
C1741       C  0.68802335  0.92985116  0.35850041     1.05800
H1742       H  0.58151977  0.90446314  0.30904112     0.37600
O1743       O  0.59553859  0.92692726  0.30918599    -1.10700
O1744       O  0.60609050  0.98642837  0.34077172    -0.67300
Ni1745     Ni  0.59053828  0.94225447  0.35671622     1.26300
O1746       O  0.62023954  0.88744784  0.32959197    -0.67600
O1747       O  0.54818878  0.93502451  0.34441111    -0.79900
C1748       C  0.59815509  0.94899513  0.43600897     0.83600
O1749       O  0.58951109  0.95846137  0.40623708    -0.67000
Ni1750     Ni  0.58687221  0.94326513  0.26370487     1.27400
Ni1751     Ni  0.63712238  0.93280066  0.31766604     1.26100
H1752       H  0.64664072  0.96850285  0.36913933     0.38100
O1753       O  0.88456305  0.83574011  0.55972572    -0.81800
O1754       O  0.85745160  0.78726827  0.73190993    -0.66500
O1755       O  0.87149909  0.82982379  0.63638872    -1.13100
C1756       C  0.97674994  0.87480811  0.68121891     1.05100
O1757       O  0.88365315  0.83298660  0.76105619    -0.79700
O1758       O  0.92072944  0.88823637  0.72408101    -0.67300
Ni1759     Ni  0.85573148  0.80323103  0.59290339     1.34900
C1760       C  0.91912542  0.90046032  0.69236043     0.83800
O1761       O  0.82007986  0.78715148  0.67591913    -0.80300
O1762       O  0.82244884  0.76869187  0.61933455    -0.90500
C1763       C  0.86242035  0.80425839  0.76095066     0.83400
O1764       O  0.88403640  0.78604970  0.60395576    -0.68700
O1765       O  0.96509644  0.86873919  0.71462797    -0.88000
C1766       C  0.88360473  0.77097883  0.63447357     0.84200
C1767       C  0.80810691  0.76700084  0.64994788     1.05800
H1768       H  0.91584085  0.81306369  0.68904525     0.37600
O1769       O  0.90770278  0.82810927  0.68986335    -1.10700
O1770       O  0.91591463  0.88683124  0.66091538    -0.67300
Ni1771     Ni  0.91621299  0.84979726  0.64242837     1.26300
O1772       O  0.86856984  0.77205109  0.66360166    -0.67600
O1773       O  0.96026694  0.86826386  0.65078708    -0.79900
C1774       C  0.90702324  0.86339151  0.56434566     0.83600
O1775       O  0.92325533  0.87203709  0.59475296    -0.67000
Ni1776     Ni  0.92387665  0.85047921  0.73592294     1.27400
Ni1777     Ni  0.86391674  0.80749702  0.68356594     1.26100
H1778       H  0.86344424  0.84498881  0.63678210     0.38100
O1779       O  0.80540745  0.77677324  0.09848830    -0.81800
O1780       O  0.79870683  0.75543768  0.92050028    -0.66500
O1781       O  0.79955364  0.78321382  0.02115439    -1.13100
C1782       C  0.69162055  0.72403350  0.01107503     1.05100
O1783       O  0.76032318  0.76468347  0.89981341    -0.79700
O1784       O  0.74475876  0.79307458  0.95460602    -0.67300
Ni1785     Ni  0.82769115  0.77643539  0.05445417     1.34900
C1786       C  0.74754849  0.80451802  0.98752774     0.83800
O1787       O  0.84208769  0.79735218  0.96397949    -0.80300
O1788       O  0.85579165  0.77892359  0.01506253    -0.90500
C1789       C  0.78510277  0.76231990  0.89388014     0.83400
O1790       O  0.80242118  0.73171622  0.04860539    -0.68700
O1791       O  0.69683637  0.73491617  0.97705897    -0.88000
C1792       C  0.79748930  0.71771295  0.01683405     0.84200
C1793       C  0.86231252  0.79393001  0.98355207     1.05800
H1794       H  0.75103873  0.72085420  0.97653881     0.37600
O1795       O  0.75628073  0.74298868  0.97742721    -1.10700
O1796       O  0.74693037  0.78935384  0.01771427    -0.67300
Ni1797     Ni  0.75614067  0.75511632  0.02928920     1.26300
O1798       O  0.80589953  0.73350176  0.98577712    -0.67600
O1799       O  0.71291407  0.72688038  0.03478851    -0.79900
C1800       C  0.77946368  0.77621713  0.10567774     0.83600
O1801       O  0.75728434  0.76798194  0.08129517    -0.67000
Ni1802     Ni  0.73027235  0.74999889  0.94098972     1.27400
Ni1803     Ni  0.79930646  0.76942974  0.97051204     1.26100
H1804       H  0.80412194  0.80519541  0.02132522     0.38100
O1805       O  0.84485281  0.89425357  0.43659000    -0.81800
O1806       O  0.79139432  0.84404060  0.27190757    -0.66500
O1807       O  0.83440744  0.86404380  0.36716648    -1.13100
C1808       C  0.88607194  0.96471623  0.30765751     1.05100
O1809       O  0.83646665  0.86593593  0.24155730    -0.79700
O1810       O  0.89342811  0.90916826  0.27147460    -0.67300
Ni1811     Ni  0.81056531  0.85929984  0.41132486     1.34900
C1812       C  0.90380084  0.90084054  0.30067945     0.83800
O1813       O  0.78808968  0.81167927  0.33548061    -0.80300
O1814       O  0.77437117  0.82260378  0.39148368    -0.90500
C1815       C  0.80759282  0.84571057  0.24317252     0.83400
O1816       O  0.79549606  0.88744119  0.39160466    -0.68700
O1817       O  0.87152110  0.95162711  0.27697218    -0.88000
C1818       C  0.77900904  0.88301860  0.36150892     0.84200
C1819       C  0.76956574  0.80442645  0.36312184     1.05800
H1820       H  0.82367438  0.90833043  0.31134926     0.37600
O1821       O  0.83591980  0.89721279  0.30897064    -1.10700
O1822       O  0.88918845  0.89279912  0.33172941    -0.67300
Ni1823     Ni  0.86153402  0.90651410  0.35309447     1.26300
O1824       O  0.77856514  0.86415901  0.33595713    -0.67600
O1825       O  0.88748184  0.94932757  0.33715060    -0.79900
C1826       C  0.87428357  0.90555163  0.43181431     0.83600
O1827       O  0.88604872  0.91298127  0.39880646    -0.67000
Ni1828     Ni  0.85412589  0.90879697  0.26052223     1.27400
Ni1829     Ni  0.81158194  0.85403136  0.32061130     1.26100
H1830       H  0.84566249  0.85180173  0.37007598     0.38100
O1831       O  0.93120091  0.59497840  0.56368058    -0.81800
O1832       O  0.93608168  0.64041871  0.73322908    -0.66500
O1833       O  0.95354992  0.62685967  0.63184434    -1.13100
C1834       C  0.93512116  0.52752883  0.68750073     1.05100
O1835       O  0.97166762  0.62589836  0.75275209    -0.79700
O1836       O  0.99244963  0.58674112  0.71855086    -0.67300
Ni1837     Ni  0.92785840  0.62853058  0.59051933     1.34900
C1838       C  0.50626852  0.59363423  0.68663923     0.83800
O1839       O  0.94657665  0.67470836  0.66921090    -0.80300
O1840       O  0.92373660  0.66365508  0.61162957    -0.90500
C1841       C  0.95664633  0.64168715  0.75739698     0.83400
O1842       O  0.88810202  0.59919803  0.61257742    -0.68700
O1843       O  0.93455389  0.53959944  0.71953120    -0.88000
C1844       C  0.87741483  0.60166478  0.64473417     0.84200
C1845       C  0.93307023  0.68088247  0.64122358     1.05800
H1846       H  0.91403878  0.57749975  0.69106379     0.37600
O1847       O  0.93628381  0.59155239  0.69040779    -1.10700
O1848       O  0.99461439  0.60131773  0.65784375    -0.67300
Ni1849     Ni  0.95044703  0.58566008  0.64290925     1.26300
O1850       O  0.89625405  0.61621985  0.67226477    -0.67600
O1851       O  0.94359028  0.54343245  0.65614389    -0.79900
C1852       C  0.95550490  0.59079851  0.56304947     0.83600
O1853       O  0.96549204  0.58357199  0.59345766    -0.67000
Ni1854     Ni  0.95288551  0.58273238  0.73527758     1.27400
Ni1855     Ni  0.94192252  0.63342103  0.68119557     1.26100
H1856       H  0.97512341  0.64199310  0.62727630     0.38100
O1857       O  0.51798480  0.73519852  0.90221613    -0.81800
O1858       O  0.53632669  0.74493461  0.07760522    -0.66500
O1859       O  0.51514488  0.71375548  0.97730117    -1.13100
C1860       C  0.94206975  0.75126029  0.99289825     1.05100
O1861       O  0.98766587  0.71392989  0.09462851    -0.79700
O1862       O  0.93474214  0.68982346  0.04670236    -0.67300
Ni1863     Ni  0.54585536  0.72927798  0.93812528     1.34900
C1864       C  0.93001318  0.67225599  0.01790276     0.83800
O1865       O  0.55953824  0.71828966  0.03102282    -0.80300
O1866       O  0.57443216  0.72149810  0.97012752    -0.90500
C1867       C  0.51717767  0.72617565  0.10162947     0.83400
O1868       O  0.56679414  0.77422921  0.95011510    -0.68700
O1869       O  0.94651770  0.75045013  0.02900205    -0.88000
C1870       C  0.57229784  0.78944986  0.98123577     0.84200
C1871       C  0.57626372  0.71552318  0.00540556     1.05800
H1872       H  0.50473586  0.76494195  0.01726107     0.37600
O1873       O  0.99556501  0.74202872  0.02062376    -1.10700
O1874       O  0.94933121  0.68131374  0.99013248    -0.67300
Ni1875     Ni  0.98124964  0.72342142  0.97230862     1.26300
O1876       O  0.55939154  0.77492408  0.01217119    -0.67600
O1877       O  0.95032354  0.73726030  0.96848859    -0.79900
C1878       C  0.98995971  0.71362093  0.89650285     0.83600
O1879       O  0.97019776  0.70546608  0.92304669    -0.67000
Ni1880     Ni  0.96672533  0.73167633  0.06070091     1.27400
Ni1881     Ni  0.52810840  0.73131150  0.02658657     1.26100
H1882       H  0.50698543  0.69107016  0.97927635     0.38100
O1883       O  0.57032321  0.66246030  0.23122306    -0.81800
O1884       O  0.52650330  0.61826845  0.39686790    -0.66500
O1885       O  0.53956928  0.65561508  0.29756334    -1.13100
C1886       C  0.63995582  0.71946813  0.35120152     1.05100
O1887       O  0.54357710  0.66585625  0.42163329    -0.79700
O1888       O  0.58141742  0.72470188  0.38677134    -0.67300
Ni1889     Ni  0.53406374  0.62983899  0.25403103     1.34900
C1890       C  0.57600949  0.73476862  0.35519222     0.83800
O1891       O  0.99100824  0.60626372  0.33383682    -0.80300
O1892       O  0.99687389  0.59574247  0.27352836    -0.90500
C1893       C  0.52800379  0.63575140  0.42463552     0.83400
O1894       O  0.55906722  0.61051792  0.27200867    -0.68700
O1895       O  0.62737580  0.70833209  0.38339186    -0.88000
C1896       C  0.55973450  0.59824734  0.30409195     0.84200
C1897       C  0.98068062  0.59044725  0.30349658     1.05800
H1898       H  0.58798757  0.65405983  0.35440807     0.37600
O1899       O  0.57532050  0.66490642  0.35483923    -1.10700
O1900       O  0.56887670  0.71805095  0.32515324    -0.67300
Ni1901     Ni  0.58166798  0.68728180  0.30778841     1.26300
O1902       O  0.54723566  0.60346875  0.33331886    -0.67600
O1903       O  0.62436896  0.71594151  0.32020399    -0.79900
C1904       C  0.57381507  0.69039623  0.22944215     0.83600
O1905       O  0.58426596  0.70755037  0.25875256    -0.67000
Ni1906     Ni  0.58547030  0.68742235  0.40102381     1.27400
Ni1907     Ni  0.53304045  0.63503853  0.34586176     1.26100
H1908       H  0.52597873  0.66539604  0.29492959     0.38100
C1909       C  0.53036390  0.71685024  0.13569885    -0.07100
C1910       C  0.56099007  0.73785051  0.14818576    -0.18200
C1911       C  0.57612718  0.72987041  0.17780090     0.10100
C1912       C  0.56042916  0.70024934  0.19635119    -0.07000
C1913       C  0.52987974  0.67921728  0.18404467    -0.18200
C1914       C  0.51488529  0.68692662  0.15404263     0.10200
S1915       S  0.61597322  0.75792486  0.18912500    -0.33200
S1916       S  0.97681059  0.65664288  0.13952314    -0.33200
H1917       H  0.98429912  0.65934070  0.10069473     0.28200
H1918       H  0.62556906  0.73539423  0.20082632     0.28200
H1919       H  0.57365126  0.76065885  0.13423187     0.18800
H1920       H  0.51746293  0.65634646  0.19797436     0.18800
C1921       C  0.96365863  0.66133105  0.79177005    -0.07100
C1922       C  0.95779898  0.64563233  0.82693286    -0.18200
C1923       C  0.96640848  0.66231373  0.86098340     0.10100
C1924       C  0.98073898  0.69578558  0.86043965    -0.07000
C1925       C  0.98662652  0.71171155  0.82520852    -0.18200
C1926       C  0.97842789  0.69484230  0.79085888     0.10200
S1927       S  0.96044681  0.63939092  0.90414742    -0.33200
S1928       S  0.48836448  0.71768642  0.74723818    -0.33200
H1929       H  0.99465568  0.69586752  0.72649220     0.28200
H1930       H  0.98970908  0.65989784  0.92020492     0.28200
H1931       H  0.94720442  0.62000976  0.82784783     0.18800
H1932       H  0.49773747  0.73755268  0.82461716     0.18800
C1933       C  0.97407260  0.59729199  0.52741520    -0.07100
C1934       C  0.50621506  0.61882289  0.52955189    -0.18200
C1935       C  0.52445741  0.63071022  0.49678673     0.10100
C1936       C  0.51055140  0.62121622  0.46035224    -0.07000
C1937       C  0.97889949  0.59792430  0.45822872    -0.18200
C1938       C  0.96057789  0.58626006  0.49117032     0.10200
S1939       S  0.56534773  0.65814134  0.50358106    -0.33200
S1940       S  0.92017083  0.55739287  0.48516502    -0.33200
H1941       H  0.91775431  0.54218270  0.52046542     0.28200
H1942       H  0.57593550  0.64917550  0.47121640     0.28200
H1943       H  0.51706497  0.62730538  0.55709909     0.18800
H1944       H  0.96801263  0.58983082  0.43062932     0.18800
C1945       C  0.67449335  0.73753994  0.35113826    -0.07100
C1946       C  0.69046067  0.73896786  0.38570040    -0.18200
C1947       C  0.72238490  0.75852669  0.38978221     0.10100
C1948       C  0.73900570  0.77707113  0.35869254    -0.07000
C1949       C  0.72408068  0.77353217  0.32321512    -0.18200
C1950       C  0.69199974  0.75403210  0.31885536     0.10200
S1951       S  0.74032633  0.75943414  0.43552794    -0.33200
S1952       S  0.67458123  0.75190761  0.27225143    -0.33200
H1953       H  0.70144981  0.77450073  0.25365707     0.28200
H1954       H  0.77048792  0.76853320  0.42147014     0.28200
H1955       H  0.67799080  0.72546414  0.41042037     0.18800
H1956       H  0.73727584  0.78782746  0.29934303     0.18800
C1957       C  0.94967088  0.56267084  0.30400254    -0.07100
C1958       C  0.93769377  0.54835804  0.33924606    -0.18200
C1959       C  0.91461452  0.51690397  0.34141174     0.10100
C1960       C  0.90375761  0.99946146  0.30786217    -0.07000
C1961       C  0.91245668  0.51532560  0.27229177    -0.18200
C1962       C  0.93461049  0.54694751  0.27022831     0.10200
S1963       S  0.89978688  0.99965380  0.38802560    -0.33200
S1964       S  0.94328085  0.56520763  0.22359967    -0.33200
H1965       H  0.95063936  0.59566663  0.23654892     0.28200
H1966       H  0.91984478  0.02584964  0.40992934     0.28200
H1967       H  0.94796832  0.56100595  0.36523563     0.18800
H1968       H  0.90274329  0.00283372  0.24637486     0.18800
C1969       C  0.79347194  0.82276266  0.21212293    -0.07100
C1970       C  0.77623757  0.82877789  0.18349839    -0.18200
C1971       C  0.76841433  0.81184093  0.14931388     0.10100
C1972       C  0.77726499  0.78769530  0.14395330    -0.07000
C1973       C  0.79176791  0.77982311  0.17439678    -0.18200
C1974       C  0.80005360  0.79707231  0.20814255     0.10200
S1975       S  0.75051725  0.82473517  0.11236876    -0.33200
S1976       S  0.82107281  0.78655091  0.24379700    -0.33200
H1977       H  0.81237013  0.79856775  0.27499776     0.28200
H1978       H  0.77234437  0.82774298  0.08451653     0.28200
H1979       H  0.77097341  0.84839805  0.18656109     0.18800
H1980       H  0.79864877  0.76136135  0.17087158     0.18800
C1981       C  0.89243021  0.80190244  0.96721933    -0.07100
C1982       C  0.89125748  0.78032534  0.94003306    -0.18200
C1983       C  0.90881091  0.76408021  0.94587309     0.10100
C1984       C  0.92824803  0.77113908  0.97875811    -0.07000
C1985       C  0.93507289  0.79869401  0.99916536    -0.18200
C1986       C  0.91805234  0.81508825  0.99223552     0.10200
S1987       S  0.90279584  0.73242831  0.91395288    -0.33200
S1988       S  0.92464600  0.84802171  0.02196837    -0.33200
H1989       H  0.90461759  0.85670892  0.00096226     0.28200
H1990       H  0.88740537  0.74081227  0.88499593     0.28200
H1991       H  0.87241488  0.77167903  0.91912074     0.18800
H1992       H  0.95231915  0.80638052  0.02200511     0.18800
C1993       C  0.60006799  0.70618293  0.01708404    -0.07100
C1994       C  0.61952853  0.72141456  0.04820690    -0.18200
C1995       C  0.64916309  0.72311443  0.05135842     0.10100
C1996       C  0.65898356  0.70940972  0.02273150    -0.07000
C1997       C  0.63696607  0.68879487  0.99663111    -0.18200
C1998       C  0.60727372  0.68672751  0.99385057     0.10200
S1999       S  0.67460383  0.74647304  0.08917571    -0.33200
S2000       S  0.58053941  0.66097529  0.95836753    -0.33200
H2001       H  0.55321248  0.65706718  0.97667571     0.28200
H2002       H  0.69798638  0.76729159  0.06468148     0.28200
H2003       H  0.61327463  0.73506282  0.06744163     0.18800
H2004       H  0.64403099  0.67700520  0.97565847     0.18800
C2005       C  0.84130448  0.79162158  0.79362506    -0.07100
C2006       C  0.82512673  0.80801800  0.80492687    -0.18200
C2007       C  0.80415872  0.79716124  0.83514740     0.10100
C2008       C  0.80036210  0.77011896  0.85622527    -0.07000
C2009       C  0.81604054  0.75324737  0.84422241    -0.18200
C2010       C  0.83601375  0.76337702  0.81286586     0.10200
S2011       S  0.78434118  0.81990544  0.84649472    -0.33200
S2012       S  0.85487281  0.73992166  0.79990747    -0.33200
H2013       H  0.88269804  0.76526839  0.78673137     0.28200
H2014       H  0.75439908  0.79386508  0.84276559     0.28200
H2015       H  0.82851804  0.82929069  0.78965394     0.18800
H2016       H  0.81339100  0.73247581  0.86007478     0.18800
C2017       C  0.92790916  0.99411559  0.68736230    -0.07100
C2018       C  0.94475163  0.98524146  0.66247306    -0.18200
C2019       C  0.94278983  0.95523728  0.66444459     0.10100
C2020       C  0.92256136  0.93274137  0.69095250    -0.07000
C2021       C  0.90501345  0.94112434  0.71531978    -0.18200
C2022       C  0.90735018  0.97159136  0.71379680     0.10200
S2023       S  0.96872485  0.94811203  0.63435644    -0.33200
S2024       S  0.88299442  0.98073374  0.74455161    -0.33200
H2025       H  0.87185188  0.45268354  0.76718781     0.28200
H2026       H  0.97785795  0.93344581  0.66341717     0.28200
H2027       H  0.96107881  0.00241449  0.64272217     0.18800
H2028       H  0.88918903  0.92360957  0.73509784     0.18800
C2029       C  0.90000955  0.75082854  0.63688891    -0.07100
C2030       C  0.89706108  0.73311377  0.67053434    -0.18200
C2031       C  0.90984975  0.71198895  0.67402488     0.10100
C2032       C  0.92564852  0.70777707  0.64293097    -0.07000
C2033       C  0.92985600  0.72632853  0.61007725    -0.18200
C2034       C  0.91811935  0.74823722  0.60704789     0.10200
S2035       S  0.90380272  0.68901052  0.71730821    -0.33200
S2036       S  0.92744735  0.77194400  0.56426618    -0.33200
H2037       H  0.93902298  0.80065671  0.58410876     0.28200
H2038       H  0.88575482  0.70053344  0.73628712     0.28200
H2039       H  0.88404846  0.73523410  0.69410729     0.18800
H2040       H  0.94224971  0.72348015  0.58623251     0.18800
C2041       C  0.91071820  0.88684702  0.53421760    -0.07100
C2042       C  0.92512279  0.88690556  0.49991758    -0.18200
C2043       C  0.91773545  0.89841259  0.46601656     0.10100
C2044       C  0.89392219  0.90802195  0.46617463    -0.07000
C2045       C  0.88296100  0.91184710  0.50143660    -0.18200
C2046       C  0.89151635  0.90195941  0.53528110     0.10200
S2047       S  0.93658837  0.89755612  0.42257760    -0.33200
S2048       S  0.87330800  0.90481260  0.57836130    -0.33200
H2049       H  0.89925460  0.91042144  0.60165188     0.28200
H2050       H  0.96036798  0.89222412  0.43969230     0.28200
H2051       H  0.94014437  0.87566464  0.49909435     0.18800
H2052       H  0.86551030  0.92015683  0.50238958     0.18800
C2053       C  0.71618789  0.92493039  0.35660228    -0.07100
C2054       C  0.72028365  0.91066762  0.32407305    -0.18200
C2055       C  0.74149965  0.89816208  0.32379016     0.10100
C2056       C  0.75906821  0.89939058  0.35722093    -0.07000
C2057       C  0.75656507  0.91596438  0.38865792    -0.18200
C2058       C  0.73573218  0.92884475  0.38861834     0.10200
S2059       S  0.74380571  0.88022648  0.28006904    -0.33200
S2060       S  0.73495083  0.94956316  0.43071048    -0.33200
H2061       H  0.72643652  0.97059110  0.41149183     0.28200
H2062       H  0.77659808  0.89740726  0.27847941     0.28200
H2063       H  0.70564181  0.90771819  0.29917150     0.18800
H2064       H  0.77037150  0.91832883  0.41416427     0.18800
C2065       C  0.49982036  0.92124721  0.31139200    -0.07100
C2066       C  0.97693860  0.89399517  0.32798664    -0.18200
C2067       C  0.94496518  0.88480257  0.32238163     0.10100
C2068       C  0.93575347  0.90418471  0.30018873    -0.07000
C2069       C  0.95872990  0.93133290  0.28245354    -0.18200
C2070       C  0.99040177  0.94030597  0.28779708     0.10200
S2071       S  0.91707763  0.84750633  0.34267031    -0.33200
S2072       S  0.51806770  0.97628272  0.26620130    -0.33200
H2073       H  0.53611553  0.98619117  0.29957598     0.28200
H2074       H  0.89355525  0.84132330  0.31500278     0.28200
H2075       H  0.98396042  0.87891623  0.34452060     0.18800
H2076       H  0.95209998  0.94680015  0.26606477     0.18800
C2077       C  0.59651107  0.52890869  0.31344854    -0.07100
C2078       C  0.60206755  0.54814098  0.28074104    -0.18200
C2079       C  0.59190271  0.57165336  0.27729350     0.10100
C2080       C  0.57471242  0.57620887  0.30718399    -0.07000
C2081       C  0.57055953  0.55799484  0.34052888    -0.18200
C2082       C  0.58128670  0.53506319  0.34407225     0.10200
S2083       S  0.60153230  0.59538510  0.23419992    -0.33200
S2084       S  0.57190502  0.51239195  0.38741245    -0.33200
H2085       H  0.60347969  0.52055063  0.39460006     0.28200
H2086       H  0.61210146  0.57742484  0.21316357     0.28200
H2087       H  0.61377332  0.54402961  0.25711381     0.18800
H2088       H  0.55790219  0.56089369  0.36401816     0.18800
C2089       C  0.59614374  0.83437905  0.35616292    -0.07100
C2090       C  0.60676211  0.82233013  0.32665558    -0.18200
C2091       C  0.59930592  0.79001997  0.32484693     0.10100
C2092       C  0.58039722  0.76826811  0.35310073    -0.07000
C2093       C  0.56918543  0.78007481  0.38225082    -0.18200
C2094       C  0.57611966  0.81230718  0.38361433     0.10200
S2095       S  0.61690930  0.77774147  0.28817536    -0.33200
S2096       S  0.55795278  0.82337757  0.42078600    -0.33200
H2097       H  0.55208269  0.84448713  0.39768917     0.28200
H2098       H  0.63314205  0.80719156  0.26967227     0.28200
H2099       H  0.62233356  0.83866996  0.30572673     0.18800
H2100       H  0.55477984  0.76399076  0.40423479     0.18800
C2101       C  0.70692020  0.96722011  0.14431669    -0.07100
C2102       C  0.70354368  0.99120480  0.16318801    -0.18200
C2103       C  0.68483210  0.98481515  0.19555598     0.10100
C2104       C  0.66790140  0.95336455  0.20946796    -0.07000
C2105       C  0.67238817  0.92956024  0.19180587    -0.18200
C2106       C  0.69189018  0.93620694  0.15997709     0.10200
S2107       S  0.68517939  0.51832677  0.21854318    -0.33200
S2108       S  0.69796561  0.90446120  0.14216142    -0.33200
H2109       H  0.72918966  0.92413114  0.13177269     0.28200
H2110       H  0.68435864  0.00690094  0.25559718     0.28200
H2111       H  0.71590729  0.51519310  0.15238791     0.18800
H2112       H  0.66042437  0.90550443  0.20266320     0.18800
C2113       C  0.59544960  0.82536393  0.98165424    -0.07100
C2114       C  0.60781327  0.84131318  0.01640366    -0.18200
C2115       C  0.63099617  0.87378274  0.01818304     0.10100
C2116       C  0.64430923  0.89181982  0.98449059    -0.07000
C2117       C  0.63103077  0.87610437  0.94992859    -0.18200
C2118       C  0.60688433  0.84432301  0.94811132     0.10200
S2119       S  0.64286509  0.89041457  0.06470013    -0.33200
S2120       S  0.59149626  0.82994707  0.90139300    -0.33200
H2121       H  0.56003900  0.81647181  0.91280127     0.28200
H2122       H  0.63991505  0.91775154  0.05557300     0.28200
H2123       H  0.59952757  0.82829813  0.04282894     0.18800
H2124       H  0.63970576  0.88876397  0.92336750     0.18800
C2125       C  0.83842258  0.58488496  0.02209303    -0.07100
C2126       C  0.85035140  0.60122681  0.98738148    -0.18200
C2127       C  0.88020265  0.62833330  0.98463329     0.10100
C2128       C  0.89993751  0.64049466  0.01724389    -0.07000
C2129       C  0.88870643  0.62329829  0.05148085    -0.18200
C2130       C  0.85924243  0.59578195  0.05405842     0.10200
S2131       S  0.89046545  0.64770145  0.93896020    -0.33200
S2132       S  0.85023938  0.57542634  0.09925516    -0.33200
H2133       H  0.83744286  0.54511130  0.08308810     0.28200
H2134       H  0.90095214  0.67807254  0.95392154     0.28200
H2135       H  0.83565509  0.59380366  0.96212768     0.18800
H2136       H  0.90319554  0.63138517  0.07687176     0.18800
C2137       C  0.75326538  0.61540669  0.00920804    -0.07100
C2138       C  0.74444267  0.62996753  0.03765494    -0.18200
C2139       C  0.75826166  0.66298741  0.04078957     0.10100
C2140       C  0.78195953  0.68249006  0.01517787    -0.07000
C2141       C  0.78955474  0.66796883  0.98546551    -0.18200
C2142       C  0.77542130  0.63493651  0.98202818     0.10200
S2143       S  0.74384428  0.67874341  0.07726142    -0.33200
S2144       S  0.78874873  0.61929006  0.94426507    -0.33200
H2145       H  0.75834304  0.59996256  0.93024305     0.28200
H2146       H  0.77179088  0.68996855  0.09871669     0.28200
H2147       H  0.72743723  0.61541002  0.05862817     0.18800
H2148       H  0.80715232  0.68246297  0.96503873     0.18800
C2149       C  0.75025246  0.83625661  0.99155855    -0.07100
C2150       C  0.73195482  0.84043843  0.01910622    -0.18200
C2151       C  0.73164534  0.86930280  0.02299266     0.10100
C2152       C  0.74916446  0.89461261  0.99781758    -0.07000
C2153       C  0.76882486  0.89080077  0.97153653    -0.18200
C2154       C  0.76996853  0.86216906  0.96860743     0.10200
S2155       S  0.70691836  0.87130413  0.05911160    -0.33200
S2156       S  0.79723399  0.86044527  0.93546083    -0.33200
H2157       H  0.80335450  0.83856427  0.95656662     0.28200
H2158       H  0.73242940  0.89640472  0.07703804     0.28200
H2159       H  0.71702422  0.82073275  0.03715091     0.18800
H2160       H  0.78306204  0.91014526  0.95259971     0.18800
C2161       C  0.70420216  0.55739460  0.80794087    -0.07100
C2162       C  0.73570671  0.56359923  0.81264060    -0.18200
C2163       C  0.74570223  0.55158214  0.84395930     0.10100
C2164       C  0.72387420  0.53271054  0.87171321    -0.07000
C2165       C  0.69282621  0.52732600  0.86788716    -0.18200
C2166       C  0.68268969  0.53942599  0.83690771     0.10200
S2167       S  0.78627403  0.56005241  0.84581314    -0.33200
S2168       S  0.64191093  0.03085204  0.83549523    -0.33200
H2169       H  0.63227780  0.51234490  0.86873696     0.28200
H2170       H  0.78155193  0.53209526  0.86492135     0.28200
H2171       H  0.75263898  0.57713993  0.79110358     0.18800
H2172       H  0.67629627  0.01351617  0.88986388     0.18800
C2173       C  0.77580459  0.57281110  0.64805820    -0.07100
C2174       C  0.79469488  0.58448115  0.68095157    -0.18200
C2175       C  0.82684774  0.59187720  0.68195240     0.10100
C2176       C  0.84187905  0.58883285  0.64876119    -0.07000
C2177       C  0.82229226  0.57538243  0.61667098    -0.18200
C2178       C  0.79000437  0.56703863  0.61615697     0.10200
S2179       S  0.84701513  0.60533573  0.72672563    -0.33200
S2180       S  0.76810113  0.54866384  0.57364860    -0.33200
H2181       H  0.73982548  0.52974078  0.59244731     0.28200
H2182       H  0.86112715  0.58529309  0.72571703     0.28200
H2183       H  0.78457463  0.58886145  0.70602300     0.18800
H2184       H  0.83225365  0.57164030  0.59107736     0.18800
C2185       C  0.58066069  0.56456346  0.68493724    -0.07100
C2186       C  0.58007237  0.58500135  0.71322797    -0.18200
C2187       C  0.55807432  0.59696133  0.71275621     0.10100
C2188       C  0.53525259  0.58884734  0.68324646    -0.07000
C2189       C  0.53647391  0.56946910  0.65407196    -0.18200
C2190       C  0.55816327  0.55697764  0.65485410     0.10200
S2191       S  0.56036460  0.62257954  0.75111861    -0.33200
S2192       S  0.55371097  0.52914994  0.61829363    -0.33200
H2193       H  0.55441934  0.50646038  0.64387767     0.28200
H2194       H  0.54786019  0.63960119  0.73023746     0.28200
H2195       H  0.59689406  0.59168714  0.73647078     0.18800
H2196       H  0.51874019  0.56192125  0.63180044     0.18800
C2197       C  0.01131136  0.89261362  0.67849244    -0.07100
C2198       C  0.52895559  0.89722001  0.71203366    -0.18200
C2199       C  0.55967482  0.92119653  0.71461206     0.10100
C2200       C  0.57285505  0.94135122  0.68305431    -0.07000
C2201       C  0.55724146  0.93345699  0.64783160    -0.19100
C2202       C  0.52662774  0.90901633  0.64481795     0.10200
S2203       S  0.58034463  0.92555009  0.75917580    -0.33200
S2204       S  0.00792332  0.90092614  0.59855896    -0.33200
H2205       H  0.03045106  0.92782021  0.57952741     0.28200
H2206       H  0.61035258  0.93907874  0.74305316     0.28200
H2207       H  0.51833789  0.88338831  0.73735782     0.18800
H2208       H  0.56812285  0.94805544  0.62315118     0.18800
C2209       C  0.78019893  0.73753002  0.65805309    -0.07100
C2210       C  0.78251896  0.71974026  0.68885743    -0.18200
C2211       C  0.76571498  0.68684891  0.68893364     0.10100
C2212       C  0.74450326  0.67160251  0.65868318    -0.07000
C2213       C  0.73920954  0.69013823  0.63072001    -0.18200
C2214       C  0.75704868  0.72291053  0.62995711     0.10200
S2215       S  0.77599670  0.66621015  0.72544271    -0.33200
S2216       S  0.75091090  0.74474826  0.59118676    -0.33200
H2217       H  0.76443680  0.77411701  0.60970808     0.28200
H2218       H  0.78142151  0.64715118  0.69949445     0.28200
H2219       H  0.80061813  0.73106286  0.71032024     0.18800
H2220       H  0.72202532  0.67901424  0.60827628     0.18800
C2221       C  0.63519560  0.50712192  0.53609126    -0.07100
C2222       C  0.61369889  0.97481913  0.54004432    -0.18200
C2223       C  0.60005387  0.95557801  0.50814849     0.10100
C2224       C  0.60778214  0.96864934  0.47109097    -0.07000
C2225       C  0.62877373  0.00109329  0.46734563    -0.18200
C2226       C  0.64223558  0.52039087  0.49908484     0.10200
S2227       S  0.57281484  0.91460160  0.51667781    -0.33200
S2228       S  0.66769118  0.56185738  0.49059000    -0.33200
H2229       H  0.65853903  0.57255375  0.52274135     0.28200
H2230       H  0.55447801  0.91107146  0.48381868     0.28200
H2231       H  0.60773021  0.96434522  0.56820797     0.18800
H2232       H  0.63558690  0.51147898  0.43911474     0.18800
loop_ 
_geom_bond_atom_site_label_1 
_geom_bond_atom_site_label_2 
_geom_bond_distance 
_geom_bond_site_symmetry_2 
_ccdc_geom_bond_type 
O1           Ni7   1.918       .  S
O1           C22   1.268       .  A
O2          Ni25   1.907       .  S
O2           C11   1.269       .  A
O3           Ni7   1.915       .  S
O3          Ni25   1.901       .  S
O3          Ni19   1.913       .  S
O3           H26   0.966       .  S
C4           O21   1.279       .  A
C4           O13   1.281       .  A
C4          C538   1.473       .  S
O5          Ni24   1.956       .  S
O5           C11   1.282       .  A
O6          Ni24   1.936       .  S
O6            C8   1.275       .  A
Ni7          O12   1.936       .  S
Ni7         O568   1.928   1_545  S
C8           O18   1.281       .  A
C8          C499   1.524       .  S
O9         Ni583   1.890       .  S
O9           C15   1.271       .  A
O10        Ni565   1.928       .  S
O10          C15   1.278       .  A
C11         C547   1.494       .  S
O12          C14   1.275       .  A
O13         Ni24   1.915       .  S
C14          O20   1.282       .  A
C14         C511   1.534       .  S
C15         C526   1.468       .  S
H16          O17   0.966       .  S
O17         Ni25   1.894       .  S
O17         Ni19   1.909       .  S
O17         Ni24   1.894       .  S
O18         Ni19   1.960       .  S
Ni19         O23   1.936       .  S
Ni19         O21   1.910       .  S
O20         Ni25   1.978       .  S
C22          O23   1.272       .  A
C22         C487   1.510       .  S
Ni25        O567   1.890   1_545  S
O27         Ni33   1.932       .  S
O27         C606   1.276   1_545  A
O28         Ni51   1.917       .  S
O28          C37   1.273       .  A
O29         Ni33   1.921       .  S
O29         Ni51   1.913   1_554  S
O29        Ni603   1.946   1_545  S
O29          H52   0.967       .  S
C30          O47   1.285   1_556  A
C30          O39   1.283       .  A
C30         C478   1.481       .  S
O31         Ni50   1.949       .  S
O31         C595   1.281       .  A
O32         Ni50   1.931       .  S
O32          C34   1.274       .  A
Ni33         O36   1.926       .  S
Ni33         O38   1.944       .  S
C34          O44   1.291   1_556  A
C34         C442   1.552       .  S
O35         Ni51   1.926       .  S
O35          C41   1.278   1_556  A
O36          C41   1.276       .  A
C37         O589   1.281   1_545  A
C37         C490   1.490       .  S
O38          C40   1.280       .  A
O39         Ni50   1.919       .  S
C40          O46   1.286   1_554  A
C40         C451   1.544       .  S
C41         C463   1.489       .  S
H42          O43   0.966       .  S
O43         Ni45   1.899   1_556  S
O43         Ni50   1.887       .  S
O43        Ni609   1.913       .  S
O44         Ni45   1.990       .  S
Ni45         O49   1.931       .  S
Ni45         O47   1.931       .  S
Ni45        O587   1.946       .  S
O46         Ni51   1.979       .  S
C48          O49   1.274       .  A
C48         O585   1.276       .  A
C48         C427   1.501       .  S
Ni51        O601   1.914   1_545  S
O53         Ni59   1.919       .  S
O53          C74   1.269       .  A
O54         Ni77   1.921       .  S
O54          C63   1.275       .  A
O55         Ni59   1.921       .  S
O55         Ni77   1.907       .  S
O55         Ni71   1.936       .  S
O55          H78   0.966       .  S
C56          O73   1.289       .  A
C56          O65   1.280       .  A
C56         C391   1.472   1_455  S
O57         Ni76   1.940       .  S
O57          C63   1.278       .  A
O58         Ni76   1.925       .  S
O58          C60   1.272       .  A
Ni59         O62   1.926       .  S
Ni59         O64   1.923       .  S
C60          O70   1.280       .  A
C60         C961   1.521       .  S
O61         Ni77   1.916       .  S
O61          C67   1.276       .  A
O62          C67   1.275       .  A
C63         C430   1.497       .  S
O64          C66   1.274       .  A
O65         Ni76   1.913       .  S
C66          O72   1.284       .  A
C66         C415   1.517       .  S
C67         C379   1.483       .  S
H68          O69   0.966       .  S
O69         Ni77   1.909       .  S
O69         Ni71   1.899       .  S
O69         Ni76   1.891       .  S
O70         Ni71   1.956       .  S
Ni71         O75   1.929       .  S
Ni71         O73   1.948       .  S
O72         Ni77   1.967       .  S
C74          O75   1.272       .  A
C74         C550   1.494       .  S
O79         Ni85   1.923       .  S
O79         C100   1.271       .  A
O80        Ni103   1.899       .  S
O80          C89   1.263       .  A
O81         Ni85   1.912       .  S
O81        Ni103   1.903       .  S
O81         Ni97   1.919       .  S
O81         H104   0.967       .  S
C82          O99   1.275       .  A
C82          O91   1.281       .  A
C82         C523   1.482       .  S
O83        Ni102   1.942       .  S
O83          C89   1.275       .  A
O84        Ni102   1.914       .  S
O84          C86   1.268       .  A
Ni85         O88   1.925       .  S
Ni85         O90   1.920       .  S
C86          O96   1.263       .  A
C86         C346   1.470       .  S
O87        Ni103   1.888       .  S
O87          C93   1.260       .  A
O88          C93   1.271       .  A
C89         C331   1.473       .  S
O90          C92   1.277       .  A
O91        Ni102   1.921       .  S
C92          O98   1.280       .  A
C92         C355   1.501       .  S
C93         C535   1.454       .  S
H94          O95   0.965       .  S
O95        Ni103   1.881       .  S
O95         Ni97   1.896       .  S
O95        Ni102   1.901       .  S
O96         Ni97   1.898       .  S
Ni97        O101   1.918       .  S
Ni97         O99   1.904       .  S
O98        Ni103   1.948       .  S
C100        O101   1.270       .  A
C100        C367   1.479       .  S
O105       Ni111   1.906       .  S
O105        C126   1.268       .  A
O106       Ni129   1.887       .  S
O106        C115   1.258       .  A
O107       Ni111   1.912       .  S
O107       Ni129   1.907   1_554  S
O107       Ni123   1.914       .  S
O107        H130   0.966       .  S
C108        O125   1.270       .  A
C108        O117   1.278   1_554  A
C108        C322   1.458       .  S
O109       Ni128   1.945       .  S
O109        C115   1.271       .  A
O110       Ni128   1.905       .  S
O110        C112   1.267       .  A
Ni111       O114   1.918       .  S
Ni111       O116   1.917       .  S
C112        O122   1.268   1_556  A
C112        C475   1.466       .  S
O113       Ni129   1.881       .  S
O113        C119   1.253       .  A
O114        C119   1.272   1_554  A
C115        C334   1.482       .  S
O116        C118   1.273       .  A
O117       Ni128   1.921       .  S
C118        O124   1.277   1_554  A
C118        C466   1.491       .  S
C119        C307   1.446       .  S
H120        O121   0.966       .  S
O121       Ni129   1.880       .  S
O121       Ni123   1.924   1_556  S
O121       Ni128   1.909       .  S
O122       Ni123   1.916       .  S
Ni123       O127   1.931       .  S
Ni123       O125   1.897       .  S
O124       Ni129   1.947       .  S
C126        O127   1.274       .  A
C126        C298   1.486       .  S
O131       Ni137   1.935       .  S
O131        C152   1.276       .  A
O132       Ni155   1.910       .  S
O132        C141   1.267       .  A
O133       Ni137   1.896       .  S
O133       Ni155   1.896       .  S
O133       Ni149   1.895       .  S
O133        H156   0.967       .  S
C134        O151   1.280       .  A
C134        O143   1.280       .  A
C134        C286   1.471       .  S
O135       Ni154   1.940       .  S
O135        C141   1.276       .  A
O136       Ni154   1.918       .  S
O136        C138   1.271       .  A
Ni137       O140   1.940       .  S
Ni137       O142   1.913       .  S
C138        O148   1.264       .  A
C138        C394   1.473       .  S
O139       Ni155   1.871       .  S
O139        C145   1.263       .  A
O140        C145   1.279       .  A
C141        C295   1.476       .  S
O142        C144   1.272       .  A
O143       Ni154   1.909       .  S
C144        O150   1.275       .  A
C144        C382   1.497       .  S
C145        C274   1.453       .  S
H146        O147   0.964       .  S
O147       Ni155   1.880       .  S
O147       Ni149   1.892       .  S
O147       Ni154   1.885       .  S
O148       Ni149   1.905       .  S
Ni149       O153   1.921       .  S
Ni149       O151   1.915       .  S
O150       Ni155   1.951       .  S
C152        O153   1.272       .  A
C152        C370   1.494       .  S
O157       Ni163   1.942       .  S
O157        C178   1.276       .  A
O158       Ni181   1.916       .  S
O158        C167   1.275       .  A
O159       Ni163   1.917       .  S
O159       Ni181   1.908       .  S
O159       Ni175   1.933       .  S
O159        H182   0.967       .  S
C160        O177   1.288       .  A
C160        O169   1.280       .  A
C160        C901   1.477   1_545  S
O161       Ni180   1.931       .  S
O161        C167   1.277       .  A
O162       Ni180   1.928       .  S
O162       C1280   1.271       .  A
Ni163       O166   1.936       .  S
Ni163       O168   1.939       .  S
C164       O1278   1.271   1_455  A
C164       O1290   1.284   1_455  A
C164        C514   1.523       .  S
O165       Ni181   1.915       .  S
O165        C171   1.275       .  A
O166        C171   1.277       .  A
C167        C247   1.478       .  S
O168        C170   1.280       .  A
O169       Ni180   1.912       .  S
C170        O176   1.285       .  A
C170        C502   1.537       .  S
C171        C358   1.484       .  S
H172        O173   0.966       .  S
O173       Ni181   1.909       .  S
O173       Ni175   1.890       .  S
O173       Ni180   1.885       .  S
O174       Ni175   1.966       .  S
O174       C1280   1.284       .  A
Ni175       O179   1.918       .  S
Ni175       O177   1.933       .  S
O176       Ni181   1.982       .  S
C178        O179   1.272       .  A
C178        C259   1.496       .  S
O183       Ni189   1.938       .  S
O183       C1320   1.276   1_455  A
O184       Ni207   1.891       .  S
O184        C193   1.266       .  A
O185       Ni189   1.913       .  S
O185       Ni207   1.903   1_556  S
O185      Ni1317   1.903   1_455  S
O185        H208   0.966       .  S
C186        O203   1.272       .  A
C186        O195   1.287   1_556  A
C186        C310   1.465       .  S
O187       Ni206   1.969       .  S
O187       C1309   1.285       .  A
O188       Ni206   1.939       .  S
O188        C190   1.274       .  A
Ni189       O192   1.925       .  S
Ni189       O194   1.950       .  S
C190        O200   1.285   1_554  A
C190        C454   1.537       .  S
O191       Ni207   1.888       .  S
O191        C197   1.268       .  A
O192        C197   1.279   1_556  A
C193       O1303   1.285   1_455  A
C193        C235   1.501       .  S
O194        C196   1.278       .  A
O195       Ni206   1.932       .  S
C196        O202   1.285   1_556  A
C196        C439   1.552       .  S
C197        C319   1.460       .  S
H198       O1315   0.966   1_455  S
O199       Ni201   1.896   1_554  S
O199       Ni206   1.890       .  S
O199      Ni1323   1.879       .  S
O199       H1314   0.966       .  S
O200       Ni201   1.980       .  S
Ni201       O205   1.901       .  S
Ni201       O203   1.890       .  S
Ni201      O1301   1.903       .  S
O202       Ni207   1.985       .  S
C204        O205   1.267       .  A
C204       O1299   1.275       .  A
C204        C250   1.482       .  S
Ni207      O1315   1.879   1_455  S
O209       Ni215   1.899       .  S
O209        C230   1.263       .  A
O210       Ni233   1.922       .  S
O210        C219   1.274       .  A
O211       Ni215   1.916       .  S
O211       Ni233   1.904       .  S
O211       Ni227   1.918       .  S
O211        H234   0.967       .  S
C212        O229   1.281       .  A
C212        O221   1.280       .  A
C212        C271   1.477       .  S
O213       Ni232   1.940       .  S
O213        C219   1.279       .  A
O214       Ni232   1.934       .  S
O214        C216   1.273       .  A
Ni215       O220   1.919       .  S
Ni215      O1334   1.912   1_455  S
C216        O226   1.277       .  A
C216        C418   1.512       .  S
O217      Ni1349   1.892       .  S
O217        C223   1.271       .  A
O218      Ni1331   1.912       .  S
O218        C223   1.273       .  A
C219        C262   1.495       .  S
O220        C222   1.269       .  A
O221       Ni232   1.901       .  S
C222        O228   1.285       .  A
C222        C406   1.528       .  S
C223        C283   1.468       .  S
H224        O225   0.966       .  S
O225       Ni233   1.893       .  S
O225       Ni227   1.905       .  S
O225       Ni232   1.891       .  S
O226       Ni227   1.946       .  S
Ni227       O231   1.940       .  S
Ni227       O229   1.917       .  S
O228       Ni233   1.979       .  S
C230        O231   1.270       .  A
C230        C238   1.492       .  S
Ni233      O1333   1.893   1_455  S
C235        C236   1.413       .  A
C235        C240   1.417       .  A
C236        C237   1.407       .  A
C236        H245   1.084       .  S
C237        C238   1.411       .  A
C237        S241   1.802       .  S
C238        C239   1.409       .  A
C239        C240   1.406       .  A
C239        H246   1.084       .  S
C240       S1358   1.802   1_455  S
S241        H244   1.406       .  S
S242       C1356   1.802       .  S
S242        H243   1.407       .  S
C247        C248   1.399       .  A
C247        C252   1.417       .  A
C248        C249   1.396       .  A
C248        H257   1.084       .  S
C249        C250   1.415       .  A
C249        S253   1.803       .  S
C250        C251   1.405       .  A
C251        C252   1.409       .  A
C251       H1374   1.084       .  S
C252       S1370   1.803       .  S
S253        H256   1.406       .  S
S254       C1368   1.803       .  S
S254       H1371   1.405       .  S
H255       S1370   1.405       .  S
H258       C1367   1.084       .  S
C259        C264   1.415       .  A
C259       C1376   1.407       .  A
C260        C261   1.405       .  A
C260       C1375   1.407   1_455  A
C260        H269   1.084       .  S
C261        C262   1.416       .  A
C261        S265   1.805       .  S
C262       C1379   1.408   1_455  A
C263        C264   1.411       .  A
C263       C1378   1.408       .  A
C263        H270   1.083       .  S
C264        S266   1.801       .  S
S265        H268   1.406       .  S
S266        H267   1.407       .  S
C271        C272   1.413       .  A
C271        C276   1.417       .  A
C272        C273   1.387       .  A
C272        H281   1.083       .  S
C273        C274   1.400       .  A
C273        S277   1.805       .  S
C274        C275   1.402       .  A
C275        C276   1.394       .  A
C275        H282   1.083       .  S
C276        S278   1.811       .  S
S277        H280   1.407       .  S
S278        H279   1.407       .  S
C283        C284   1.403       .  A
C283        C288   1.413       .  A
C284        C285   1.395       .  A
C284        H293   1.082       .  S
C285        C844   1.414   1_545  A
C285        S847   1.811   1_545  S
C286        C843   1.415       .  A
C286        C845   1.404       .  A
C287        C288   1.388       .  A
C287        C844   1.404   1_545  A
C287        H852   1.084       .  S
C288        S290   1.806       .  S
S289        C843   1.811       .  S
S289        H292   1.406       .  S
S290        H291   1.408       .  S
H294        C845   1.084       .  S
C295        C296   1.403       .  A
C295        C300   1.410       .  A
C296        C297   1.405       .  A
C296        H305   1.084       .  S
C297        C298   1.417       .  A
C297        S301   1.799       .  S
C298        C299   1.407       .  A
C299        C300   1.399       .  A
C299        H306   1.084       .  S
C300        S302   1.804       .  S
S301        H304   1.407       .  S
S302        H303   1.403       .  S
C307        C308   1.398       .  A
C307        C312   1.398       .  A
C308        C309   1.397       .  A
C308        H317   1.084       .  S
C309        C310   1.418       .  A
C309        S313   1.806       .  S
C310        C311   1.404       .  A
C311        C312   1.387       .  A
C311        H318   1.084   1_556  S
C312        S314   1.800   1_556  S
S313        H316   1.408       .  S
S314        H315   1.409   1_554  S
C319        C320   1.402       .  A
C319        C324   1.408   1_554  A
C320        C321   1.395       .  A
C320        H329   1.084       .  S
C321        C322   1.411       .  A
C321        S325   1.800       .  S
C322        C323   1.402   1_554  A
C323        C324   1.390       .  A
C323        H330   1.084       .  S
C324        S326   1.804       .  S
S325        H328   1.402       .  S
S326        H327   1.408       .  S
C331        C332   1.401       .  A
C331        C336   1.412       .  A
C332        C333   1.398       .  A
C332        H341   1.084       .  S
C333        C334   1.414       .  A
C333        S337   1.798       .  S
C334        C335   1.407       .  A
C335        C336   1.402       .  A
C335        H342   1.084       .  S
C336        S338   1.805       .  S
S337        H340   1.407       .  S
S338        H339   1.406       .  S
C343        C718   1.476       .  S
C343        C344   1.400       .  A
C343        C348   1.419       .  A
C344        C345   1.390       .  A
C344        H353   1.084       .  S
C345        C346   1.414       .  A
C345        S349   1.802       .  S
C346        C347   1.400       .  A
C347        C348   1.404       .  A
C347        H354   1.083       .  S
C348        S350   1.809       .  S
S349        H352   1.405       .  S
S350        H909   1.407       .  S
H351        S908   1.407       .  S
C355        C356   1.413       .  A
C355        C360   1.419       .  A
C356        C357   1.406       .  A
C356        H365   1.082       .  S
C357        C358   1.412       .  A
C357        S361   1.808       .  S
C358        C359   1.403       .  A
C359        C360   1.401       .  A
C359        H366   1.084       .  S
C360        S362   1.800       .  S
S361        H364   1.407       .  S
S362        H363   1.408       .  S
C367        C368   1.402       .  A
C367        C372   1.413       .  A
C368        C369   1.412       .  A
C368        H377   1.083       .  S
C369        C370   1.419       .  A
C369        S373   1.802       .  S
C370        C371   1.404       .  A
C371        C372   1.398       .  A
C371        H378   1.084       .  S
C372        S374   1.803       .  S
S373        H376   1.407       .  S
S374        H375   1.403       .  S
C379        C380   1.403       .  A
C379        C384   1.413       .  A
C380        C381   1.402       .  A
C380        H389   1.084       .  S
C381        C382   1.423       .  A
C381        S385   1.802       .  S
C382        C383   1.409       .  A
C383        C384   1.398       .  A
C383        H390   1.083       .  S
C384        S386   1.804       .  S
S385        H388   1.405       .  S
S386        H387   1.407       .  S
C391       C1508   1.403       .  A
C391       C1512   1.412       .  A
C392        C393   1.404       .  A
C392       C1507   1.402       .  A
C392        H401   1.084       .  S
C393        C394   1.416       .  A
C393        S397   1.804       .  S
C394        C395   1.400       .  A
C395        C396   1.391       .  A
C395        H402   1.084       .  S
C396       C1507   1.412       .  A
C396       S1514   1.798       .  S
S397        H400   1.407       .  S
S398       C1512   1.798   1_455  S
S398        H399   1.400       .  S
C403        C618   1.521   1_545  S
C403        C404   1.409       .  A
C403        C408   1.422       .  A
C404        C405   1.419       .  A
C404        H413   1.082       .  S
C405        C406   1.430       .  A
C405        S409   1.810       .  S
C406        C407   1.409       .  A
C407        C408   1.413       .  A
C407        H414   1.083       .  S
C408        S410   1.793       .  S
S409        H412   1.406       .  S
S410        H411   1.404       .  S
C415        C416   1.407       .  A
C415        C420   1.425       .  A
C416        C417   1.413       .  A
C416        H425   1.082       .  S
C417        C418   1.420       .  A
C417        S421   1.802       .  S
C418        C419   1.407       .  A
C419        C420   1.415       .  A
C419        H426   1.084       .  S
C420        S422   1.802       .  S
S421        H424   1.406       .  S
S422        H423   1.408       .  S
C427        C428   1.406       .  A
C427        C432   1.418       .  A
C428        C429   1.404       .  A
C428        H995   1.084       .  S
C429        C430   1.418       .  A
C429        S991   1.804       .  S
C430        C431   1.406       .  A
C431        C432   1.409       .  A
C431        H438   1.084       .  S
C432        S434   1.794       .  S
S433        C987   1.804   1_545  S
S433        H994   1.408       .  S
S434        H435   1.406       .  S
H436        S991   1.408       .  S
H437        C986   1.084   1_545  S
C439        C440   1.419   1_556  A
C439        C444   1.428       .  A
C440        C441   1.431       .  A
C440        H449   1.083       .  S
C441        C442   1.428   1_554  A
C441        S445   1.796       .  S
C442        C443   1.417       .  A
C443        C444   1.422       .  A
C443        H450   1.083       .  S
C444        S446   1.801       .  S
S445        H448   1.407       .  S
S446        H447   1.408       .  S
C451        C452   1.417   1_554  A
C451        C456   1.428       .  A
C452        C453   1.424       .  A
C452        H461   1.083       .  S
C453        C454   1.425   1_556  A
C453        S457   1.799       .  S
C454        C455   1.412       .  A
C455        C456   1.421       .  A
C455        H462   1.084       .  S
C456        S458   1.800       .  S
S457        H460   1.402       .  S
S458        H459   1.408       .  S
C463        C464   1.406       .  A
C463        C468   1.416   1_554  A
C464        C465   1.405       .  A
C464        H473   1.083       .  S
C465        C466   1.415       .  A
C465        S469   1.806       .  S
C466        C467   1.406   1_554  A
C467        C468   1.403       .  A
C467        H474   1.084       .  S
C468        S470   1.800       .  S
S469        H472   1.408       .  S
S470        H471   1.407       .  S
C475        C476   1.398   1_556  A
C475        C480   1.410       .  A
C476        C477   1.392       .  A
C476        H485   1.083       .  S
C477        C478   1.414   1_554  A
C477        S481   1.791       .  S
C478        C479   1.407       .  A
C479        C480   1.397       .  A
C479        H486   1.084       .  S
C480        S482   1.803       .  S
S481        H484   1.406       .  S
S482        H483   1.406       .  S
C487        C488   1.413       .  A
C487        C492   1.425       .  A
C488        C489   1.411       .  A
C488        H497   1.084       .  S
C489        C490   1.414       .  A
C489        S493   1.804       .  S
C490        C491   1.400       .  A
C491        C492   1.407       .  A
C491       H1056   1.083       .  S
C492       S1052   1.811       .  S
S493        H496   1.405       .  S
S494       C1050   1.811       .  S
S494       H1053   1.406       .  S
H495       S1052   1.406       .  S
H498       C1049   1.083       .  S
C499        C500   1.412       .  A
C499        C504   1.419       .  A
C500        C501   1.421       .  A
C500        H509   1.084       .  S
C501        C502   1.429       .  A
C501        S505   1.800       .  S
C502        C503   1.415       .  A
C503        C504   1.416       .  A
C503        H510   1.083       .  S
C504        S506   1.803       .  S
S505        H508   1.407       .  S
S506        H507   1.407       .  S
C511        C512   1.414       .  A
C511        C516   1.427       .  A
C512        C513   1.417       .  A
C512        H521   1.083       .  S
C513        C514   1.420       .  A
C513        S517   1.803       .  S
C514        C515   1.412       .  A
C515        C516   1.422       .  A
C515        H522   1.084       .  S
C516        S518   1.801       .  S
S517        H520   1.407       .  S
S518        H519   1.408       .  S
C523       C1640   1.408       .  A
C523       C1644   1.420       .  A
C524        C525   1.392       .  A
C524       C1639   1.408       .  A
C524        H533   1.084       .  S
C525        C526   1.408       .  A
C525        S529   1.805       .  S
C526        C527   1.401       .  A
C527        C528   1.397       .  A
C527        H534   1.082       .  S
C528       C1639   1.420       .  A
C528       S1646   1.811       .  S
S529        H532   1.408       .  S
S530       C1644   1.811       .  S
S530        H531   1.407       .  S
C535        C536   1.400       .  A
C535        C540   1.404       .  A
C536        C537   1.392       .  A
C536        H545   1.085       .  S
C537        C538   1.416       .  A
C537        S541   1.803       .  S
C538        C539   1.409       .  A
C539        C540   1.392       .  A
C539        H546   1.084       .  S
C540        S542   1.804       .  S
S541        H544   1.408       .  S
S542        H543   1.407       .  S
C547        C552   1.414       .  A
C547       C1106   1.408   1_545  A
C548        C549   1.408       .  A
C548       C1105   1.408       .  A
C548        H557   1.084       .  S
C549        C550   1.415       .  A
C549        S553   1.803       .  S
C550        C551   1.408       .  A
C551       C1110   1.406       .  A
C551       H1116   1.082       .  S
C552       C1109   1.407       .  A
C552        S554   1.803       .  S
S553        H556   1.407       .  S
S554        H555   1.407       .  S
H558       C1109   1.082       .  S
O559       Ni565   1.917       .  S
O559        C580   1.268       .  A
O560       Ni583   1.906       .  S
O560        C569   1.269       .  A
O561       Ni565   1.915       .  S
O561       Ni583   1.901       .  S
O561       Ni577   1.914       .  S
O561        H584   0.966       .  S
C562        O579   1.279       .  A
C562        O571   1.282       .  A
C562       C1096   1.473       .  S
O563       Ni582   1.956       .  S
O563        C569   1.282       .  A
O564       Ni582   1.935       .  S
O564        C566   1.275       .  A
Ni565       O570   1.936       .  S
C566        O576   1.282       .  A
C566       C1057   1.524       .  S
O567        C573   1.271       .  A
O568        C573   1.278       .  A
C569       C1105   1.494       .  S
O570        C572   1.274       .  A
O571       Ni582   1.916       .  S
C572        O578   1.282       .  A
C572       C1069   1.533       .  S
C573       C1084   1.468       .  S
H574        O575   0.966       .  S
O575       Ni583   1.894       .  S
O575       Ni577   1.909       .  S
O575       Ni582   1.894       .  S
O576       Ni577   1.961       .  S
Ni577       O581   1.936       .  S
Ni577       O579   1.910       .  S
O578       Ni583   1.978       .  S
C580        O581   1.272       .  A
C580       C1045   1.510       .  S
O585       Ni591   1.932       .  S
O586       Ni609   1.917       .  S
O586        C595   1.273       .  A
O587       Ni591   1.921       .  S
O587       Ni609   1.913   1_554  S
O587        H610   0.967       .  S
C588        O605   1.285   1_556  A
C588        O597   1.283       .  A
C588       C1036   1.482       .  S
O589       Ni608   1.949       .  S
O590       Ni608   1.933       .  S
O590        C592   1.274       .  A
Ni591       O594   1.925       .  S
Ni591       O596   1.944       .  S
C592        O602   1.291   1_556  A
C592       C1000   1.553       .  S
O593       Ni609   1.925       .  S
O593        C599   1.277   1_556  A
O594        C599   1.276       .  A
C595       C1048   1.490       .  S
O596        C598   1.280       .  A
O597       Ni608   1.920       .  S
C598        O604   1.286   1_554  A
C598       C1009   1.544       .  S
C599       C1021   1.487       .  S
H600        O601   0.966       .  S
O601       Ni603   1.899   1_556  S
O601       Ni608   1.887       .  S
O602       Ni603   1.990       .  S
Ni603       O607   1.931       .  S
Ni603       O605   1.931       .  S
O604       Ni609   1.979       .  S
C606        O607   1.274       .  A
C606        C985   1.502       .  S
O611       Ni617   1.919       .  S
O611        C632   1.269       .  A
O612       Ni635   1.921       .  S
O612        C621   1.275       .  A
O613       Ni617   1.921       .  S
O613       Ni635   1.907       .  S
O613       Ni629   1.936       .  S
O613        H636   0.966       .  S
C614        O631   1.289       .  A
C614        O623   1.280       .  A
C614        C949   1.472   1_455  S
O615       Ni634   1.940       .  S
O615        C621   1.278       .  A
O616       Ni634   1.926       .  S
O616        C618   1.272       .  A
Ni617       O620   1.926       .  S
Ni617       O622   1.923       .  S
C618        O628   1.279       .  A
O619       Ni635   1.916       .  S
O619        C625   1.275       .  A
O620        C625   1.275       .  A
C621        C988   1.497       .  S
O622        C624   1.274       .  A
O623       Ni634   1.913       .  S
C624        O630   1.285       .  A
C624        C973   1.518       .  S
C625        C937   1.483       .  S
H626        O627   0.966       .  S
O627       Ni635   1.909       .  S
O627       Ni629   1.899       .  S
O627       Ni634   1.892       .  S
O628       Ni629   1.956       .  S
Ni629       O633   1.929       .  S
Ni629       O631   1.947       .  S
O630       Ni635   1.968       .  S
C632        O633   1.272       .  A
C632       C1108   1.495       .  S
O637       Ni643   1.922       .  S
O637        C658   1.271       .  A
O638       Ni661   1.899       .  S
O638        C647   1.264       .  A
O639       Ni643   1.912       .  S
O639       Ni661   1.903       .  S
O639       Ni655   1.919       .  S
O639        H662   0.967       .  S
C640        O657   1.275       .  A
C640        O649   1.281       .  A
C640       C1081   1.482       .  S
O641       Ni660   1.943       .  S
O641        C647   1.275       .  A
O642       Ni660   1.914       .  S
O642        C644   1.268       .  A
Ni643       O646   1.924       .  S
Ni643       O648   1.920       .  S
C644        O654   1.263       .  A
C644        C904   1.470       .  S
O645       Ni661   1.889       .  S
O645        C651   1.260       .  A
O646        C651   1.271       .  A
C647        C889   1.473       .  S
O648        C650   1.277       .  A
O649       Ni660   1.922       .  S
C650        O656   1.280       .  A
C650        C913   1.501       .  S
C651       C1093   1.454       .  S
H652        O653   0.965       .  S
O653       Ni661   1.881       .  S
O653       Ni655   1.897       .  S
O653       Ni660   1.901       .  S
O654       Ni655   1.898       .  S
Ni655       O659   1.919       .  S
Ni655       O657   1.904       .  S
O656       Ni661   1.948       .  S
C658        O659   1.270       .  A
C658        C925   1.479       .  S
O663       Ni669   1.904       .  S
O663        C684   1.268       .  A
O664       Ni687   1.887       .  S
O664        C673   1.258       .  A
O665       Ni669   1.911       .  S
O665       Ni687   1.907   1_554  S
O665       Ni681   1.915       .  S
O665        H688   0.966       .  S
C666        O683   1.270       .  A
C666        O675   1.278   1_554  A
C666        C880   1.459       .  S
O667       Ni686   1.945       .  S
O667        C673   1.271       .  A
O668       Ni686   1.905       .  S
O668        C670   1.267       .  A
Ni669       O672   1.918       .  S
Ni669       O674   1.916       .  S
C670        O680   1.268   1_556  A
C670       C1033   1.466       .  S
O671       Ni687   1.882       .  S
O671        C677   1.253       .  A
O672        C677   1.272   1_554  A
C673        C892   1.482       .  S
O674        C676   1.273       .  A
O675       Ni686   1.921       .  S
C676        O682   1.277   1_554  A
C676       C1024   1.490       .  S
C677        C865   1.447       .  S
H678        O679   0.966       .  S
O679       Ni687   1.880       .  S
O679       Ni681   1.924   1_556  S
O679       Ni686   1.909       .  S
O680       Ni681   1.916       .  S
Ni681       O685   1.932       .  S
Ni681       O683   1.899       .  S
O682       Ni687   1.946       .  S
C684        O685   1.274       .  A
C684        C856   1.486       .  S
O689       Ni695   1.935       .  S
O689        C710   1.276       .  A
O690       Ni713   1.910       .  S
O690        C699   1.267       .  A
O691       Ni695   1.896       .  S
O691       Ni713   1.896       .  S
O691       Ni707   1.895       .  S
O691        H714   0.967       .  S
C692        O709   1.280       .  A
C692        O701   1.280       .  A
C692        C844   1.471       .  S
O693       Ni712   1.939       .  S
O693        C699   1.276       .  A
O694       Ni712   1.918       .  S
O694        C696   1.271       .  A
Ni695       O698   1.940       .  S
Ni695       O700   1.913       .  S
C696        O706   1.264       .  A
C696        C952   1.473       .  S
O697       Ni713   1.871       .  S
O697        C703   1.263       .  A
O698        C703   1.279       .  A
C699        C853   1.476       .  S
O700        C702   1.272       .  A
O701       Ni712   1.909       .  S
C702        O708   1.275       .  A
C702        C940   1.497       .  S
C703        C832   1.454       .  S
H704        O705   0.964       .  S
O705       Ni713   1.880       .  S
O705       Ni707   1.892       .  S
O705       Ni712   1.884       .  S
O706       Ni707   1.904       .  S
Ni707       O711   1.921       .  S
Ni707       O709   1.915       .  S
O708       Ni713   1.951       .  S
C710        O711   1.272       .  A
C710        C928   1.494       .  S
O715       Ni721   1.940       .  S
O715        C736   1.276       .  A
O716       Ni739   1.916       .  S
O716        C725   1.275       .  A
O717       Ni721   1.917       .  S
O717       Ni739   1.908       .  S
O717       Ni733   1.933       .  S
O717        H740   0.967       .  S
C718        O735   1.288       .  A
C718        O727   1.280       .  A
O719       Ni738   1.932       .  S
O719        C725   1.277       .  A
O720       Ni738   1.928       .  S
O720       C1838   1.271       .  A
Ni721       O724   1.936       .  S
Ni721       O726   1.939       .  S
C722       O1836   1.271   1_455  A
C722       O1848   1.284   1_455  A
C722       C1072   1.523       .  S
O723       Ni739   1.916       .  S
O723        C729   1.275       .  A
O724        C729   1.277       .  A
C725        C805   1.479       .  S
O726        C728   1.280       .  A
O727       Ni738   1.912       .  S
C728        O734   1.285       .  A
C728       C1060   1.537       .  S
C729        C916   1.484       .  S
H730        O731   0.966       .  S
O731       Ni739   1.909       .  S
O731       Ni733   1.890       .  S
O731       Ni738   1.885       .  S
O732       Ni733   1.966       .  S
O732       C1838   1.284       .  A
Ni733       O737   1.918       .  S
Ni733       O735   1.933       .  S
O734       Ni739   1.982       .  S
C736        O737   1.272       .  A
C736        C817   1.495       .  S
O741       Ni747   1.938       .  S
O741       C1878   1.275   1_455  A
O742       Ni765   1.892       .  S
O742        C751   1.267       .  A
O743       Ni747   1.913       .  S
O743       Ni765   1.903   1_556  S
O743      Ni1875   1.904   1_455  S
O743        H766   0.966       .  S
C744        O761   1.272       .  A
C744        O753   1.287   1_556  A
C744        C868   1.465       .  S
O745       Ni764   1.969       .  S
O745       C1867   1.285       .  A
O746       Ni764   1.938       .  S
O746        C748   1.274       .  A
Ni747       O750   1.925       .  S
Ni747       O752   1.950       .  S
C748        O758   1.285   1_554  A
C748       C1012   1.536       .  S
O749       Ni765   1.889       .  S
O749        C755   1.268       .  A
O750        C755   1.279   1_556  A
C751       O1861   1.285   1_455  A
C751        C793   1.501       .  S
O752        C754   1.278       .  A
O753       Ni764   1.932       .  S
C754        O760   1.285   1_556  A
C754        C997   1.552       .  S
C755        C877   1.462       .  S
H756       O1873   0.966   1_455  S
O757      Ni1881   1.879       .  S
O757       Ni759   1.896   1_554  S
O757       Ni764   1.890       .  S
O757       H1872   0.966       .  S
O758       Ni759   1.980       .  S
Ni759       O763   1.901       .  S
Ni759       O761   1.890       .  S
Ni759      O1859   1.903       .  S
O760       Ni765   1.986       .  S
C762       O1857   1.276       .  A
C762        O763   1.267       .  A
C762        C808   1.482       .  S
Ni765      O1873   1.879   1_455  S
O767       Ni773   1.899       .  S
O767        C788   1.264       .  A
O768       Ni791   1.923       .  S
O768        C777   1.274       .  A
O769       Ni773   1.916       .  S
O769       Ni791   1.904       .  S
O769       Ni785   1.918       .  S
O769        H792   0.967       .  S
C770        O787   1.281       .  A
C770        O779   1.280       .  A
C770        C829   1.478       .  S
O771       Ni790   1.940       .  S
O771        C777   1.279       .  A
O772       Ni790   1.934       .  S
O772        C774   1.273       .  A
Ni773      O1892   1.912   1_455  S
Ni773       O778   1.919       .  S
C774        O784   1.277       .  A
C774        C976   1.513       .  S
O775      Ni1907   1.893       .  S
O775        C781   1.271       .  A
O776      Ni1889   1.912       .  S
O776        C781   1.273       .  A
C777        C820   1.496       .  S
O778        C780   1.269       .  A
O779       Ni790   1.902       .  S
C780        O786   1.285       .  A
C780        C964   1.527       .  S
C781        C841   1.469       .  S
H782        O783   0.966       .  S
O783       Ni791   1.893       .  S
O783       Ni785   1.905       .  S
O783       Ni790   1.891       .  S
O784       Ni785   1.946       .  S
Ni785       O789   1.940       .  S
Ni785       O787   1.917       .  S
O786       Ni791   1.979       .  S
C788        O789   1.270       .  A
C788        C796   1.493       .  S
Ni791      O1891   1.892   1_455  S
C793        C794   1.413       .  A
C793        C798   1.417       .  A
C794        C795   1.407       .  A
C794        H803   1.084       .  S
C795        C796   1.411       .  A
C795        S799   1.801       .  S
C796        C797   1.409       .  A
C797        C798   1.406       .  A
C797        H804   1.084       .  S
C798       S1916   1.802   1_455  S
S799        H802   1.406       .  S
S800       C1914   1.802       .  S
S800        H801   1.407       .  S
C805        C806   1.399       .  A
C805        C810   1.417       .  A
C806        C807   1.396       .  A
C806        H815   1.084       .  S
C807        C808   1.415       .  A
C807        S811   1.803       .  S
C808        C809   1.405       .  A
C809        C810   1.409       .  A
C809       H1932   1.084       .  S
C810       S1928   1.803       .  S
S811        H814   1.406       .  S
S812       C1926   1.803       .  S
S812       H1929   1.406       .  S
H813       S1928   1.405       .  S
H816       C1925   1.084       .  S
C817       C1934   1.407       .  A
C817        C822   1.415       .  A
C818       C1933   1.407   1_455  A
C818        C819   1.405       .  A
C818        H827   1.084       .  S
C819        C820   1.416       .  A
C819        S823   1.805       .  S
C820       C1937   1.409   1_455  A
C821       C1936   1.408       .  A
C821        C822   1.411       .  A
C821        H828   1.083       .  S
C822        S824   1.801       .  S
S823        H826   1.406       .  S
S824        H825   1.406       .  S
C829        C830   1.413       .  A
C829        C834   1.418       .  A
C830        C831   1.387       .  A
C830        H839   1.083       .  S
C831        C832   1.401       .  A
C831        S835   1.805       .  S
C832        C833   1.402       .  A
C833        C834   1.394       .  A
C833        H840   1.083       .  S
C834        S836   1.811       .  S
S835        H838   1.407       .  S
S836        H837   1.407       .  S
C841        C842   1.403       .  A
C841        C846   1.413       .  A
C842        C843   1.396       .  A
C842        H851   1.082       .  S
C845        C846   1.388       .  A
C846        S848   1.806       .  S
S847        H850   1.406   1_565  S
S848        H849   1.408       .  S
C853        C854   1.403       .  A
C853        C858   1.410       .  A
C854        C855   1.405       .  A
C854        H863   1.084       .  S
C855        C856   1.417       .  A
C855        S859   1.799       .  S
C856        C857   1.407       .  A
C857        C858   1.399       .  A
C857        H864   1.084       .  S
C858        S860   1.804       .  S
S859        H862   1.407       .  S
S860        H861   1.403       .  S
C865        C866   1.398       .  A
C865        C870   1.398       .  A
C866        C867   1.398       .  A
C866        H875   1.084       .  S
C867        C868   1.419       .  A
C867        S871   1.806       .  S
C868        C869   1.404       .  A
C869        C870   1.387       .  A
C869        H876   1.084   1_556  S
C870        S872   1.800   1_556  S
S871        H874   1.408       .  S
S872        H873   1.409       .  S
C877        C878   1.402       .  A
C877        C882   1.408   1_554  A
C878        C879   1.395       .  A
C878        H887   1.084       .  S
C879        C880   1.410       .  A
C879        S883   1.800       .  S
C880        C881   1.402   1_554  A
C881        C882   1.390       .  A
C881        H888   1.084       .  S
C882        S884   1.804       .  S
S883        H886   1.403       .  S
S884        H885   1.408       .  S
C889        C890   1.401       .  A
C889        C894   1.412       .  A
C890        C891   1.398       .  A
C890        H899   1.084       .  S
C891        C892   1.414       .  A
C891        S895   1.799       .  S
C892        C893   1.408       .  A
C893        C894   1.402       .  A
C893        H900   1.084       .  S
C894        S896   1.805       .  S
S895        H898   1.407       .  S
S896        H897   1.405       .  S
C901        C902   1.400       .  A
C901        C906   1.419       .  A
C902        C903   1.390       .  A
C902        H911   1.084   1_565  S
C903        C904   1.415       .  A
C903        S907   1.802       .  S
C904        C905   1.400       .  A
C905        C906   1.404       .  A
C905        H912   1.083       .  S
C906        S908   1.809       .  S
S907        H910   1.405       .  S
C913        C914   1.413       .  A
C913        C918   1.420       .  A
C914        C915   1.406       .  A
C914        H923   1.082       .  S
C915        C916   1.412       .  A
C915        S919   1.808       .  S
C916        C917   1.403       .  A
C917        C918   1.401       .  A
C917        H924   1.084       .  S
C918        S920   1.800       .  S
S919        H922   1.407       .  S
S920        H921   1.408       .  S
C925        C926   1.402       .  A
C925        C930   1.413       .  A
C926        C927   1.412       .  A
C926        H935   1.083       .  S
C927        C928   1.419       .  A
C927        S931   1.802       .  S
C928        C929   1.404       .  A
C929        C930   1.398       .  A
C929        H936   1.084       .  S
C930        S932   1.803       .  S
S931        H934   1.407       .  S
S932        H933   1.403       .  S
C937        C938   1.403       .  A
C937        C942   1.413       .  A
C938        C939   1.402       .  A
C938        H947   1.084       .  S
C939        C940   1.423       .  A
C939        S943   1.802       .  S
C940        C941   1.409       .  A
C941        C942   1.398       .  A
C941        H948   1.083       .  S
C942        S944   1.804       .  S
S943        H946   1.405       .  S
S944        H945   1.407       .  S
C949       C2066   1.402       .  A
C949       C2070   1.412       .  A
C950       C2065   1.402       .  A
C950        C951   1.404       .  A
C950        H959   1.084       .  S
C951        C952   1.416       .  A
C951        S955   1.804       .  S
C952        C953   1.400       .  A
C953        C954   1.391       .  A
C953        H960   1.084       .  S
C954       C2065   1.412       .  A
C954       S2072   1.798       .  S
S955        H958   1.407       .  S
S956       C2070   1.798   1_455  S
S956        H957   1.400       .  S
C961        C962   1.409       .  A
C961        C966   1.422       .  A
C962        C963   1.418       .  A
C962        H971   1.083       .  S
C963        C964   1.429       .  A
C963        S967   1.809       .  S
C964        C965   1.409       .  A
C965        C966   1.413       .  A
C965        H972   1.083       .  S
C966        S968   1.793       .  S
S967        H970   1.407       .  S
S968        H969   1.404       .  S
C973        C974   1.407       .  A
C973        C978   1.425       .  A
C974        C975   1.413       .  A
C974        H983   1.082       .  S
C975        C976   1.420       .  A
C975        S979   1.802       .  S
C976        C977   1.407       .  A
C977        C978   1.415       .  A
C977        H984   1.084       .  S
C978        S980   1.802       .  S
S979        H982   1.406       .  S
S980        H981   1.408       .  S
C985        C986   1.406       .  A
C985        C990   1.418       .  A
C986        C987   1.405       .  A
C987        C988   1.418       .  A
C988        C989   1.406       .  A
C989        C990   1.409       .  A
C989        H996   1.084       .  S
C990        S992   1.794       .  S
S992        H993   1.406       .  S
C997        C998   1.419   1_556  A
C997       C1002   1.428       .  A
C998        C999   1.431       .  A
C998       H1007   1.083       .  S
C999       C1000   1.428   1_554  A
C999       S1003   1.795       .  S
C1000      C1001   1.417       .  A
C1001      C1002   1.422       .  A
C1001      H1008   1.083       .  S
C1002      S1004   1.801       .  S
S1003      H1006   1.407       .  S
S1004      H1005   1.408       .  S
C1009      C1010   1.417   1_554  A
C1009      C1014   1.427       .  A
C1010      C1011   1.424       .  A
C1010      H1019   1.083       .  S
C1011      C1012   1.425   1_556  A
C1011      S1015   1.799       .  S
C1012      C1013   1.412       .  A
C1013      C1014   1.421       .  A
C1013      H1020   1.084       .  S
C1014      S1016   1.800       .  S
S1015      H1018   1.403       .  S
S1016      H1017   1.408       .  S
C1021      C1022   1.405       .  A
C1021      C1026   1.416   1_554  A
C1022      C1023   1.402       .  A
C1022      H1031   1.084       .  S
C1023      C1024   1.416       .  A
C1023      S1027   1.800       .  S
C1024      C1025   1.406   1_554  A
C1025      C1026   1.403       .  A
C1025      H1032   1.084       .  S
C1026      S1028   1.800       .  S
S1027      H1030   1.407       .  S
S1028      H1029   1.407       .  S
C1033      C1034   1.398   1_556  A
C1033      C1038   1.410       .  A
C1034      C1035   1.392       .  A
C1034      H1043   1.083       .  S
C1035      C1036   1.414   1_554  A
C1035      S1039   1.790       .  S
C1036      C1037   1.408       .  A
C1037      C1038   1.397       .  A
C1037      H1044   1.084       .  S
C1038      S1040   1.803       .  S
S1039      H1042   1.406       .  S
S1040      H1041   1.406       .  S
C1045      C1046   1.413       .  A
C1045      C1050   1.426       .  A
C1046      C1047   1.411       .  A
C1046      H1055   1.084       .  S
C1047      C1048   1.414       .  A
C1047      S1051   1.804       .  S
C1048      C1049   1.400       .  A
C1049      C1050   1.407       .  A
S1051      H1054   1.405       .  S
C1057      C1058   1.412       .  A
C1057      C1062   1.419       .  A
C1058      C1059   1.421       .  A
C1058      H1067   1.084       .  S
C1059      C1060   1.429       .  A
C1059      S1063   1.800       .  S
C1060      C1061   1.415       .  A
C1061      C1062   1.416       .  A
C1061      H1068   1.083       .  S
C1062      S1064   1.803       .  S
S1063      H1066   1.407       .  S
S1064      H1065   1.407       .  S
C1069      C1070   1.414       .  A
C1069      C1074   1.426       .  A
C1070      C1071   1.417       .  A
C1070      H1079   1.083       .  S
C1071      C1072   1.420       .  A
C1071      S1075   1.803       .  S
C1072      C1073   1.412       .  A
C1073      C1074   1.422       .  A
C1073      H1080   1.084       .  S
C1074      S1076   1.801       .  S
S1075      H1078   1.407       .  S
S1076      H1077   1.408       .  S
C1081      C2198   1.408       .  A
C1081      C2202   1.420       .  A
C1082      C2197   1.408       .  A
C1082      C1083   1.392       .  A
C1082      H1091   1.084       .  S
C1083      C1084   1.408       .  A
C1083      S1087   1.805       .  S
C1084      C1085   1.401       .  A
C1085      C1086   1.397       .  A
C1085      H1092   1.082       .  S
C1086      C2197   1.420       .  A
C1086      S2204   1.811       .  S
S1087      H1090   1.408       .  S
S1088      C2202   1.811       .  S
S1088      H1089   1.407       .  S
C1093      C1094   1.400       .  A
C1093      C1098   1.404       .  A
C1094      C1095   1.392       .  A
C1094      H1103   1.085       .  S
C1095      C1096   1.416       .  A
C1095      S1099   1.803       .  S
C1096      C1097   1.409       .  A
C1097      C1098   1.392       .  A
C1097      H1104   1.084       .  S
C1098      S1100   1.805       .  S
S1099      H1102   1.408       .  S
S1100      H1101   1.407       .  S
C1105      C1110   1.414       .  A
C1106      C1107   1.408       .  A
C1106      H1115   1.084       .  S
C1107      C1108   1.415       .  A
C1107      S1111   1.802       .  S
C1108      C1109   1.408   1_565  A
C1110      S1112   1.803       .  S
S1111      H1114   1.407       .  S
S1112      H1113   1.407       .  S
O1117     Ni1123   1.918       .  S
O1117      C1138   1.268       .  A
O1118     Ni1141   1.906       .  S
O1118      C1127   1.269       .  A
O1119     Ni1123   1.915       .  S
O1119     Ni1141   1.901       .  S
O1119     Ni1135   1.914       .  S
O1119      H1142   0.966       .  S
C1120      O1137   1.279       .  A
C1120      O1129   1.281       .  A
C1120      C1654   1.473       .  S
O1121     Ni1140   1.956       .  S
O1121      C1127   1.282       .  A
O1122     Ni1140   1.936       .  S
O1122      C1124   1.275       .  A
Ni1123     O1684   1.928   1_545  S
Ni1123     O1128   1.936       .  S
C1124      O1134   1.281       .  A
C1124      C1615   1.524       .  S
O1125     Ni1699   1.890       .  S
O1125      C1131   1.271       .  A
O1126     Ni1681   1.928       .  S
O1126      C1131   1.278       .  A
C1127      C1663   1.494       .  S
O1128      C1130   1.274       .  A
O1129     Ni1140   1.915       .  S
C1130      O1136   1.282       .  A
C1130      C1627   1.534       .  S
C1131      C1642   1.468       .  S
H1132      O1133   0.966       .  S
O1133     Ni1141   1.894       .  S
O1133     Ni1135   1.908       .  S
O1133     Ni1140   1.894       .  S
O1134     Ni1135   1.961       .  S
Ni1135     O1139   1.935       .  S
Ni1135     O1137   1.909       .  S
O1136     Ni1141   1.978       .  S
C1138      O1139   1.272       .  A
C1138      C1603   1.510       .  S
Ni1141     O1683   1.890   1_545  S
O1143     Ni1149   1.932       .  S
O1143      C1722   1.276   1_545  A
O1144     Ni1167   1.916       .  S
O1144      C1153   1.273       .  A
O1145     Ni1149   1.921       .  S
O1145     Ni1167   1.913   1_554  S
O1145     Ni1719   1.946   1_545  S
O1145      H1168   0.967       .  S
C1146      O1163   1.285   1_556  A
C1146      O1155   1.283       .  A
C1146      C1594   1.482       .  S
O1147     Ni1166   1.949       .  S
O1147      C1711   1.281       .  A
O1148     Ni1166   1.931       .  S
O1148      C1150   1.274       .  A
Ni1149     O1152   1.925       .  S
Ni1149     O1154   1.945       .  S
C1150      O1160   1.291   1_556  A
C1150      C1558   1.552       .  S
O1151     Ni1167   1.925       .  S
O1151      C1157   1.277   1_556  A
O1152      C1157   1.276       .  A
C1153      O1705   1.281   1_545  A
C1153      C1606   1.490       .  S
O1154      C1156   1.280       .  A
O1155     Ni1166   1.920       .  S
C1156      O1162   1.286   1_554  A
C1156      C1567   1.544       .  S
C1157      C1579   1.487       .  S
H1158      O1159   0.966       .  S
O1159     Ni1725   1.914       .  S
O1159     Ni1161   1.900   1_556  S
O1159     Ni1166   1.887       .  S
O1160     Ni1161   1.990       .  S
Ni1161     O1165   1.932       .  S
Ni1161     O1163   1.931       .  S
Ni1161     O1703   1.946       .  S
O1162     Ni1167   1.979       .  S
C1164      O1701   1.276       .  A
C1164      O1165   1.274       .  A
C1164      C1543   1.502       .  S
Ni1167     O1717   1.913   1_545  S
O1169     Ni1175   1.919       .  S
O1169      C1190   1.269       .  A
O1170     Ni1193   1.921       .  S
O1170      C1179   1.275       .  A
O1171     Ni1175   1.921       .  S
O1171     Ni1193   1.907       .  S
O1171     Ni1187   1.936       .  S
O1171      H1194   0.966       .  S
C1172      O1189   1.289       .  A
C1172      O1181   1.280       .  A
C1172      C1507   1.472       .  S
O1173     Ni1192   1.941       .  S
O1173      C1179   1.278       .  A
O1174     Ni1192   1.926       .  S
O1174      C1176   1.272       .  A
Ni1175     O1178   1.926       .  S
Ni1175     O1180   1.923       .  S
C1176      O1186   1.279       .  A
C1176      C2077   1.521       .  S
O1177     Ni1193   1.915       .  S
O1177      C1183   1.275       .  A
O1178      C1183   1.275       .  A
C1179      C1546   1.497       .  S
O1180      C1182   1.274       .  A
O1181     Ni1192   1.913       .  S
C1182      O1188   1.285       .  A
C1182      C1531   1.518       .  S
C1183      C1495   1.483       .  S
H1184      O1185   0.966       .  S
O1185     Ni1193   1.908       .  S
O1185     Ni1187   1.899       .  S
O1185     Ni1192   1.892       .  S
O1186     Ni1187   1.956       .  S
Ni1187     O1191   1.929       .  S
Ni1187     O1189   1.948       .  S
O1188     Ni1193   1.968       .  S
C1190      O1191   1.272       .  A
C1190      C1666   1.495       .  S
O1195     Ni1201   1.922       .  S
O1195      C1216   1.271       .  A
O1196     Ni1219   1.899       .  S
O1196      C1205   1.263       .  A
O1197     Ni1201   1.912       .  S
O1197     Ni1219   1.903       .  S
O1197     Ni1213   1.920       .  S
O1197      H1220   0.967       .  S
C1198      O1215   1.275       .  A
C1198      O1207   1.281       .  A
C1198      C1639   1.482   1_655  S
O1199     Ni1218   1.943       .  S
O1199      C1205   1.275       .  A
O1200     Ni1218   1.914       .  S
O1200      C1202   1.268       .  A
Ni1201     O1204   1.924       .  S
Ni1201     O1206   1.920       .  S
C1202      O1212   1.263       .  A
C1202      C1462   1.470       .  S
O1203     Ni1219   1.888       .  S
O1203      C1209   1.260       .  A
O1204      C1209   1.271       .  A
C1205      C1447   1.473       .  S
O1206      C1208   1.277       .  A
O1207     Ni1218   1.922       .  S
C1208      O1214   1.280       .  A
C1208      C1471   1.500       .  S
C1209      C1651   1.454       .  S
H1210      O1211   0.965       .  S
O1211     Ni1219   1.881       .  S
O1211     Ni1213   1.897       .  S
O1211     Ni1218   1.901       .  S
O1212     Ni1213   1.898       .  S
Ni1213     O1217   1.919       .  S
Ni1213     O1215   1.904       .  S
O1214     Ni1219   1.948       .  S
C1216      O1217   1.270       .  A
C1216      C1483   1.479       .  S
O1221     Ni1227   1.904       .  S
O1221      C1242   1.268       .  A
O1222     Ni1245   1.887       .  S
O1222      C1231   1.258       .  A
O1223     Ni1227   1.911       .  S
O1223     Ni1245   1.907   1_554  S
O1223     Ni1239   1.915       .  S
O1223      H1246   0.966       .  S
C1224      O1241   1.270       .  A
C1224      O1233   1.278   1_554  A
C1224      C1438   1.459       .  S
O1225     Ni1244   1.945       .  S
O1225      C1231   1.271       .  A
O1226     Ni1244   1.905       .  S
O1226      C1228   1.267       .  A
Ni1227     O1230   1.918       .  S
Ni1227     O1232   1.916       .  S
C1228      O1238   1.268   1_556  A
C1228      C1591   1.466       .  S
O1229     Ni1245   1.882       .  S
O1229      C1235   1.253       .  A
O1230      C1235   1.272   1_554  A
C1231      C1450   1.483       .  S
O1232      C1234   1.273       .  A
O1233     Ni1244   1.920       .  S
C1234      O1240   1.277   1_554  A
C1234      C1582   1.490       .  S
C1235      C1423   1.447       .  S
H1236      O1237   0.966       .  S
O1237     Ni1245   1.880       .  S
O1237     Ni1239   1.924   1_556  S
O1237     Ni1244   1.909       .  S
O1238     Ni1239   1.915       .  S
Ni1239     O1243   1.932       .  S
Ni1239     O1241   1.898       .  S
O1240     Ni1245   1.946       .  S
C1242      O1243   1.274       .  A
C1242      C1414   1.486       .  S
O1247     Ni1253   1.935       .  S
O1247      C1268   1.276       .  A
O1248     Ni1271   1.910       .  S
O1248      C1257   1.267       .  A
O1249     Ni1253   1.896       .  S
O1249     Ni1271   1.897       .  S
O1249     Ni1265   1.895       .  S
O1249      H1272   0.967       .  S
C1250      O1267   1.280       .  A
C1250      O1259   1.279       .  A
C1250      C1402   1.471       .  S
O1251     Ni1270   1.939       .  S
O1251      C1257   1.276       .  A
O1252     Ni1270   1.918       .  S
O1252      C1254   1.271       .  A
Ni1253     O1256   1.940       .  S
Ni1253     O1258   1.913       .  S
C1254      O1264   1.264       .  A
C1254      C1510   1.473       .  S
O1255     Ni1271   1.870       .  S
O1255      C1261   1.263       .  A
O1256      C1261   1.279       .  A
C1257      C1411   1.476       .  S
O1258      C1260   1.272       .  A
O1259     Ni1270   1.909       .  S
C1260      O1266   1.275       .  A
C1260      C1498   1.497       .  S
C1261      C1390   1.453       .  S
H1262      O1263   0.964       .  S
O1263     Ni1271   1.880       .  S
O1263     Ni1265   1.892       .  S
O1263     Ni1270   1.885       .  S
O1264     Ni1265   1.904       .  S
Ni1265     O1269   1.921       .  S
Ni1265     O1267   1.915       .  S
O1266     Ni1271   1.951       .  S
C1268      O1269   1.272       .  A
C1268      C1486   1.494       .  S
O1273     Ni1279   1.941       .  S
O1273      C1294   1.276       .  A
O1274     Ni1297   1.916       .  S
O1274      C1283   1.275       .  A
O1275     Ni1279   1.917       .  S
O1275     Ni1297   1.908       .  S
O1275     Ni1291   1.932       .  S
O1275      H1298   0.967       .  S
C1276      O1293   1.288       .  A
C1276      O1285   1.280       .  A
C1276      C2017   1.476   1_545  S
O1277     Ni1296   1.932       .  S
O1277      C1283   1.277       .  A
O1278     Ni1296   1.928       .  S
Ni1279     O1282   1.936       .  S
Ni1279     O1284   1.939       .  S
C1280      C1630   1.523       .  S
O1281     Ni1297   1.915       .  S
O1281      C1287   1.275       .  A
O1282      C1287   1.277       .  A
C1283      C1363   1.479       .  S
O1284      C1286   1.280       .  A
O1285     Ni1296   1.912       .  S
C1286      O1292   1.285       .  A
C1286      C1618   1.537       .  S
C1287      C1474   1.484       .  S
H1288      O1289   0.966       .  S
O1289     Ni1297   1.909       .  S
O1289     Ni1291   1.890       .  S
O1289     Ni1296   1.885       .  S
O1290     Ni1291   1.965       .  S
Ni1291     O1295   1.918       .  S
Ni1291     O1293   1.932       .  S
O1292     Ni1297   1.982       .  S
C1294      O1295   1.272       .  A
C1294      C1375   1.495       .  S
O1299     Ni1305   1.938       .  S
O1300     Ni1323   1.891       .  S
O1300      C1309   1.266       .  A
O1301     Ni1305   1.913       .  S
O1301     Ni1323   1.903   1_556  S
O1301      H1324   0.966       .  S
C1302      O1319   1.272       .  A
C1302      O1311   1.287   1_556  A
C1302      C1426   1.465       .  S
O1303     Ni1322   1.969       .  S
O1304     Ni1322   1.938       .  S
O1304      C1306   1.274       .  A
Ni1305     O1308   1.925       .  S
Ni1305     O1310   1.950       .  S
C1306      O1316   1.286   1_554  A
C1306      C1570   1.537       .  S
O1307     Ni1323   1.889       .  S
O1307      C1313   1.268       .  A
O1308      C1313   1.279   1_556  A
C1309      C1351   1.502       .  S
O1310      C1312   1.278       .  A
O1311     Ni1322   1.932       .  S
C1312      O1318   1.285   1_556  A
C1312      C1555   1.552       .  S
C1313      C1435   1.462       .  S
O1315     Ni1317   1.896   1_554  S
O1315     Ni1322   1.890       .  S
O1316     Ni1317   1.980       .  S
Ni1317     O1321   1.901       .  S
Ni1317     O1319   1.890       .  S
O1318     Ni1323   1.985       .  S
C1320      O1321   1.267       .  A
C1320      C1366   1.482       .  S
O1325     Ni1331   1.899       .  S
O1325      C1346   1.264       .  A
O1326     Ni1349   1.923       .  S
O1326      C1335   1.274       .  A
O1327     Ni1331   1.916       .  S
O1327     Ni1349   1.904       .  S
O1327     Ni1343   1.918       .  S
O1327      H1350   0.966       .  S
C1328      O1345   1.281       .  A
C1328      O1337   1.280       .  A
C1328      C1387   1.477       .  S
O1329     Ni1348   1.940       .  S
O1329      C1335   1.279       .  A
O1330     Ni1348   1.934       .  S
O1330      C1332   1.273       .  A
Ni1331     O1336   1.919       .  S
C1332      O1342   1.277       .  A
C1332      C1534   1.513       .  S
O1333      C1339   1.271       .  A
O1334      C1339   1.273       .  A
C1335      C1378   1.496       .  S
O1336      C1338   1.269       .  A
O1337     Ni1348   1.902       .  S
C1338      O1344   1.285       .  A
C1338      C1522   1.528       .  S
C1339      C1399   1.468       .  S
H1340      O1341   0.966       .  S
O1341     Ni1349   1.893       .  S
O1341     Ni1343   1.905       .  S
O1341     Ni1348   1.891       .  S
O1342     Ni1343   1.946       .  S
Ni1343     O1347   1.940       .  S
Ni1343     O1345   1.916       .  S
O1344     Ni1349   1.979       .  S
C1346      O1347   1.270       .  A
C1346      C1354   1.493       .  S
C1351      C1352   1.413       .  A
C1351      C1356   1.417       .  A
C1352      C1353   1.407       .  A
C1352      H1361   1.084       .  S
C1353      C1354   1.411       .  A
C1353      S1357   1.802       .  S
C1354      C1355   1.409       .  A
C1355      C1356   1.406       .  A
C1355      H1362   1.084       .  S
S1357      H1360   1.406       .  S
S1358      H1359   1.407       .  S
C1363      C1364   1.399       .  A
C1363      C1368   1.417       .  A
C1364      C1365   1.396       .  A
C1364      H1373   1.084       .  S
C1365      C1366   1.415       .  A
C1365      S1369   1.803       .  S
C1366      C1367   1.405       .  A
C1367      C1368   1.409       .  A
S1369      H1372   1.406       .  S
C1375      C1380   1.415       .  A
C1376      C1377   1.405       .  A
C1376      H1385   1.084       .  S
C1377      C1378   1.416       .  A
C1377      S1381   1.805       .  S
C1379      C1380   1.411       .  A
C1379      H1386   1.083       .  S
C1380      S1382   1.801       .  S
S1381      H1384   1.406       .  S
S1382      H1383   1.407       .  S
C1387      C1388   1.413       .  A
C1387      C1392   1.417       .  A
C1388      C1389   1.387       .  A
C1388      H1397   1.083       .  S
C1389      C1390   1.401       .  A
C1389      S1393   1.805       .  S
C1390      C1391   1.402       .  A
C1391      C1392   1.394       .  A
C1391      H1398   1.083       .  S
C1392      S1394   1.812       .  S
S1393      H1396   1.407       .  S
S1394      H1395   1.407       .  S
C1399      C1400   1.403       .  A
C1399      C1404   1.413       .  A
C1400      C1401   1.395       .  A
C1400      H1409   1.082       .  S
C1401      C1960   1.414   1_545  A
C1401      S1963   1.811   1_545  S
C1402      C1959   1.414       .  A
C1402      C1961   1.404       .  A
C1403      C1960   1.404   1_545  A
C1403      C1404   1.388       .  A
C1403      H1968   1.084       .  S
C1404      S1406   1.806       .  S
S1405      C1959   1.811       .  S
S1405      H1408   1.406       .  S
S1406      H1407   1.408       .  S
H1410      C1961   1.084       .  S
C1411      C1412   1.403       .  A
C1411      C1416   1.410       .  A
C1412      C1413   1.405       .  A
C1412      H1421   1.084       .  S
C1413      C1414   1.417       .  A
C1413      S1417   1.799       .  S
C1414      C1415   1.407       .  A
C1415      C1416   1.399       .  A
C1415      H1422   1.084       .  S
C1416      S1418   1.804       .  S
S1417      H1420   1.407       .  S
S1418      H1419   1.403       .  S
C1423      C1424   1.398       .  A
C1423      C1428   1.398       .  A
C1424      C1425   1.398       .  A
C1424      H1433   1.084       .  S
C1425      C1426   1.419       .  A
C1425      S1429   1.806       .  S
C1426      C1427   1.404       .  A
C1427      C1428   1.387       .  A
C1427      H1434   1.084   1_556  S
C1428      S1430   1.800   1_556  S
S1429      H1432   1.408       .  S
S1430      H1431   1.409       .  S
C1435      C1436   1.402       .  A
C1435      C1440   1.408   1_554  A
C1436      C1437   1.395       .  A
C1436      H1445   1.084       .  S
C1437      C1438   1.411       .  A
C1437      S1441   1.800       .  S
C1438      C1439   1.402   1_554  A
C1439      C1440   1.390       .  A
C1439      H1446   1.084       .  S
C1440      S1442   1.804       .  S
S1441      H1444   1.403       .  S
S1442      H1443   1.408       .  S
C1447      C1448   1.401       .  A
C1447      C1452   1.412       .  A
C1448      C1449   1.398       .  A
C1448      H1457   1.084       .  S
C1449      C1450   1.414       .  A
C1449      S1453   1.798       .  S
C1450      C1451   1.408       .  A
C1451      C1452   1.402       .  A
C1451      H1458   1.084       .  S
C1452      S1454   1.805       .  S
S1453      H1456   1.407       .  S
S1454      H1455   1.405       .  S
C1459      C1834   1.477       .  S
C1459      C1460   1.400       .  A
C1459      C1464   1.419       .  A
C1460      C1461   1.390       .  A
C1460      H1469   1.084       .  S
C1461      C1462   1.415       .  A
C1461      S1465   1.802       .  S
C1462      C1463   1.400       .  A
C1463      C1464   1.404       .  A
C1463      H1470   1.083       .  S
C1464      S1466   1.809       .  S
S1465      H1468   1.405       .  S
S1466      H2025   1.407       .  S
H1467      S2024   1.407       .  S
C1471      C1472   1.413       .  A
C1471      C1476   1.419       .  A
C1472      C1473   1.406       .  A
C1472      H1481   1.082       .  S
C1473      C1474   1.412       .  A
C1473      S1477   1.808       .  S
C1474      C1475   1.403       .  A
C1475      C1476   1.401       .  A
C1475      H1482   1.084       .  S
C1476      S1478   1.800       .  S
S1477      H1480   1.407       .  S
S1478      H1479   1.408       .  S
C1483      C1484   1.402       .  A
C1483      C1488   1.413       .  A
C1484      C1485   1.412       .  A
C1484      H1493   1.083       .  S
C1485      C1486   1.419       .  A
C1485      S1489   1.802       .  S
C1486      C1487   1.404       .  A
C1487      C1488   1.398       .  A
C1487      H1494   1.084       .  S
C1488      S1490   1.803       .  S
S1489      H1492   1.407       .  S
S1490      H1491   1.403       .  S
C1495      C1496   1.403       .  A
C1495      C1500   1.413       .  A
C1496      C1497   1.402       .  A
C1496      H1505   1.084       .  S
C1497      C1498   1.423       .  A
C1497      S1501   1.802       .  S
C1498      C1499   1.409       .  A
C1499      C1500   1.398       .  A
C1499      H1506   1.083       .  S
C1500      S1502   1.804       .  S
S1501      H1504   1.405       .  S
S1502      H1503   1.407       .  S
C1508      C1509   1.405       .  A
C1508      H1517   1.084       .  S
C1509      C1510   1.416       .  A
C1509      S1513   1.804       .  S
C1510      C1511   1.400       .  A
C1511      C1512   1.391       .  A
C1511      H1518   1.084       .  S
S1513      H1516   1.407       .  S
S1514      H1515   1.400       .  S
C1519      C1734   1.521   1_545  S
C1519      C1520   1.409       .  A
C1519      C1524   1.422       .  A
C1520      C1521   1.419       .  A
C1520      H1529   1.082       .  S
C1521      C1522   1.430       .  A
C1521      S1525   1.810       .  S
C1522      C1523   1.409       .  A
C1523      C1524   1.413       .  A
C1523      H1530   1.083       .  S
C1524      S1526   1.793       .  S
S1525      H1528   1.406       .  S
S1526      H1527   1.404       .  S
C1531      C1532   1.407       .  A
C1531      C1536   1.425       .  A
C1532      C1533   1.413       .  A
C1532      H1541   1.082       .  S
C1533      C1534   1.420       .  A
C1533      S1537   1.802       .  S
C1534      C1535   1.407       .  A
C1535      C1536   1.416       .  A
C1535      H1542   1.084       .  S
C1536      S1538   1.802       .  S
S1537      H1540   1.406       .  S
S1538      H1539   1.408       .  S
C1543      C1544   1.406       .  A
C1543      C1548   1.418       .  A
C1544      C1545   1.405       .  A
C1544      H2111   1.084       .  S
C1545      C1546   1.418       .  A
C1545      S2107   1.804       .  S
C1546      C1547   1.406       .  A
C1547      C1548   1.409       .  A
C1547      H1554   1.084       .  S
C1548      S1550   1.794       .  S
S1549      C2103   1.804   1_545  S
S1549      H2110   1.408       .  S
S1550      H1551   1.406       .  S
H1552      S2107   1.408       .  S
H1553      C2102   1.084   1_545  S
C1555      C1556   1.419   1_556  A
C1555      C1560   1.428       .  A
C1556      C1557   1.431       .  A
C1556      H1565   1.083       .  S
C1557      C1558   1.427   1_554  A
C1557      S1561   1.795       .  S
C1558      C1559   1.417       .  A
C1559      C1560   1.422       .  A
C1559      H1566   1.083       .  S
C1560      S1562   1.801       .  S
S1561      H1564   1.407       .  S
S1562      H1563   1.408       .  S
C1567      C1568   1.417   1_554  A
C1567      C1572   1.427       .  A
C1568      C1569   1.424       .  A
C1568      H1577   1.083       .  S
C1569      C1570   1.425   1_556  A
C1569      S1573   1.799       .  S
C1570      C1571   1.412       .  A
C1571      C1572   1.422       .  A
C1571      H1578   1.084       .  S
C1572      S1574   1.800       .  S
S1573      H1576   1.403       .  S
S1574      H1575   1.408       .  S
C1579      C1580   1.406       .  A
C1579      C1584   1.416   1_554  A
C1580      C1581   1.402       .  A
C1580      H1589   1.084       .  S
C1581      C1582   1.416       .  A
C1581      S1585   1.800       .  S
C1582      C1583   1.406   1_554  A
C1583      C1584   1.403       .  A
C1583      H1590   1.084       .  S
C1584      S1586   1.800       .  S
S1585      H1588   1.407       .  S
S1586      H1587   1.407       .  S
C1591      C1592   1.398   1_556  A
C1591      C1596   1.410       .  A
C1592      C1593   1.392       .  A
C1592      H1601   1.083       .  S
C1593      C1594   1.414   1_554  A
C1593      S1597   1.791       .  S
C1594      C1595   1.407       .  A
C1595      C1596   1.397       .  A
C1595      H1602   1.084       .  S
C1596      S1598   1.803       .  S
S1597      H1600   1.406       .  S
S1598      H1599   1.407       .  S
C1603      C1604   1.413       .  A
C1603      C1608   1.426       .  A
C1604      C1605   1.410       .  A
C1604      H1613   1.084       .  S
C1605      C1606   1.414       .  A
C1605      S1609   1.804       .  S
C1606      C1607   1.400       .  A
C1607      C1608   1.407       .  A
C1607      H2172   1.083       .  S
C1608      S2168   1.811       .  S
S1609      H1612   1.405       .  S
S1610      C2166   1.811       .  S
S1610      H2169   1.406       .  S
H1611      S2168   1.406       .  S
H1614      C2165   1.083       .  S
C1615      C1616   1.412       .  A
C1615      C1620   1.419       .  A
C1616      C1617   1.421       .  A
C1616      H1625   1.084       .  S
C1617      C1618   1.429       .  A
C1617      S1621   1.800       .  S
C1618      C1619   1.415       .  A
C1619      C1620   1.416       .  A
C1619      H1626   1.083       .  S
C1620      S1622   1.803       .  S
S1621      H1624   1.407       .  S
S1622      H1623   1.407       .  S
C1627      C1628   1.414       .  A
C1627      C1632   1.426       .  A
C1628      C1629   1.417       .  A
C1628      H1637   1.083       .  S
C1629      C1630   1.420       .  A
C1629      S1633   1.803       .  S
C1630      C1631   1.412       .  A
C1631      C1632   1.422       .  A
C1631      H1638   1.084       .  S
C1632      S1634   1.801       .  S
S1633      H1636   1.407       .  S
S1634      H1635   1.408       .  S
C1640      C1641   1.392       .  A
C1640      H1649   1.084       .  S
C1641      C1642   1.408       .  A
C1641      S1645   1.805       .  S
C1642      C1643   1.401       .  A
C1643      C1644   1.397       .  A
C1643      H1650   1.082       .  S
S1645      H1648   1.407       .  S
S1646      H1647   1.407       .  S
C1651      C1652   1.400       .  A
C1651      C1656   1.404       .  A
C1652      C1653   1.392       .  A
C1652      H1661   1.085       .  S
C1653      C1654   1.416       .  A
C1653      S1657   1.803       .  S
C1654      C1655   1.409       .  A
C1655      C1656   1.392       .  A
C1655      H1662   1.084       .  S
C1656      S1658   1.805       .  S
S1657      H1660   1.408       .  S
S1658      H1659   1.407       .  S
C1663      C2222   1.408   1_545  A
C1663      C1668   1.414       .  A
C1664      C2221   1.409       .  A
C1664      C1665   1.409       .  A
C1664      H1673   1.084       .  S
C1665      C1666   1.415       .  A
C1665      S1669   1.803       .  S
C1666      C1667   1.408       .  A
C1667      C2226   1.407       .  A
C1667      H2232   1.083       .  S
C1668      C2225   1.406       .  A
C1668      S1670   1.803       .  S
S1669      H1672   1.407       .  S
S1670      H1671   1.407       .  S
H1674      C2225   1.082       .  S
O1675     Ni1681   1.918       .  S
O1675      C1696   1.268       .  A
O1676     Ni1699   1.907       .  S
O1676      C1685   1.269       .  A
O1677     Ni1681   1.915       .  S
O1677     Ni1699   1.901       .  S
O1677     Ni1693   1.913       .  S
O1677      H1700   0.966       .  S
C1678      O1695   1.279       .  A
C1678      O1687   1.282       .  A
C1678      C2212   1.473       .  S
O1679     Ni1698   1.956       .  S
O1679      C1685   1.282       .  A
O1680     Ni1698   1.935       .  S
O1680      C1682   1.275       .  A
Ni1681     O1686   1.936       .  S
C1682      O1692   1.282       .  A
C1682      C2173   1.524       .  S
O1683      C1689   1.271       .  A
O1684      C1689   1.278       .  A
C1685      C2221   1.495       .  S
O1686      C1688   1.275       .  A
O1687     Ni1698   1.916       .  S
C1688      O1694   1.282       .  A
C1688      C2185   1.534       .  S
C1689      C2200   1.468       .  S
H1690      O1691   0.966       .  S
O1691     Ni1699   1.894       .  S
O1691     Ni1693   1.909       .  S
O1691     Ni1698   1.894       .  S
O1692     Ni1693   1.960       .  S
Ni1693     O1697   1.936       .  S
Ni1693     O1695   1.909       .  S
O1694     Ni1699   1.978       .  S
C1696      O1697   1.272       .  A
C1696      C2161   1.510       .  S
O1701     Ni1707   1.931       .  S
O1702     Ni1725   1.917       .  S
O1702      C1711   1.273       .  A
O1703     Ni1707   1.922       .  S
O1703     Ni1725   1.914   1_554  S
O1703      H1726   0.967       .  S
C1704      O1721   1.285   1_556  A
C1704      O1713   1.283       .  A
C1704      C2152   1.482       .  S
O1705     Ni1724   1.949       .  S
O1706     Ni1724   1.932       .  S
O1706      C1708   1.274       .  A
Ni1707     O1710   1.925       .  S
Ni1707     O1712   1.944       .  S
C1708      O1718   1.291   1_556  A
C1708      C2116   1.552       .  S
O1709     Ni1725   1.926       .  S
O1709      C1715   1.278   1_556  A
O1710      C1715   1.276       .  A
C1711      C2164   1.491       .  S
O1712      C1714   1.280       .  A
O1713     Ni1724   1.919       .  S
C1714      O1720   1.286   1_554  A
C1714      C2125   1.544       .  S
C1715      C2137   1.488       .  S
H1716      O1717   0.966       .  S
O1717     Ni1719   1.899   1_556  S
O1717     Ni1724   1.887       .  S
O1718     Ni1719   1.990       .  S
Ni1719     O1723   1.931       .  S
Ni1719     O1721   1.931       .  S
O1720     Ni1725   1.979       .  S
C1722      O1723   1.274       .  A
C1722      C2101   1.501       .  S
O1727     Ni1733   1.919       .  S
O1727      C1748   1.269       .  A
O1728     Ni1751   1.921       .  S
O1728      C1737   1.275       .  A
O1729     Ni1733   1.921       .  S
O1729     Ni1751   1.907       .  S
O1729     Ni1745   1.936       .  S
O1729      H1752   0.966       .  S
C1730      O1747   1.289       .  A
C1730      O1739   1.280       .  A
C1730      C2065   1.472       .  S
O1731     Ni1750   1.940       .  S
O1731      C1737   1.278       .  A
O1732     Ni1750   1.925       .  S
O1732      C1734   1.272       .  A
Ni1733     O1736   1.926       .  S
Ni1733     O1738   1.923       .  S
C1734      O1744   1.280       .  A
O1735     Ni1751   1.917       .  S
O1735      C1741   1.276       .  A
O1736      C1741   1.275       .  A
C1737      C2104   1.497       .  S
O1738      C1740   1.274       .  A
O1739     Ni1750   1.913       .  S
C1740      O1746   1.284       .  A
C1740      C2089   1.517       .  S
C1741      C2053   1.483       .  S
H1742      O1743   0.966       .  S
O1743     Ni1751   1.909       .  S
O1743     Ni1745   1.899       .  S
O1743     Ni1750   1.891       .  S
O1744     Ni1745   1.956       .  S
Ni1745     O1749   1.928       .  S
Ni1745     O1747   1.948       .  S
O1746     Ni1751   1.966       .  S
C1748      O1749   1.272       .  A
C1748      C2224   1.494       .  S
O1753     Ni1759   1.923       .  S
O1753      C1774   1.271       .  A
O1754     Ni1777   1.899       .  S
O1754      C1763   1.264       .  A
O1755     Ni1759   1.912       .  S
O1755     Ni1777   1.904       .  S
O1755     Ni1771   1.920       .  S
O1755      H1778   0.966       .  S
C1756      O1773   1.275       .  A
C1756      O1765   1.281       .  A
C1756      C2197   1.482   1_655  S
O1757     Ni1776   1.942       .  S
O1757      C1763   1.275       .  A
O1758     Ni1776   1.914       .  S
O1758      C1760   1.268       .  A
Ni1759     O1762   1.925       .  S
Ni1759     O1764   1.920       .  S
C1760      O1770   1.263       .  A
C1760      C2020   1.470       .  S
O1761     Ni1777   1.888       .  S
O1761      C1767   1.260       .  A
O1762      C1767   1.271       .  A
C1763      C2005   1.473       .  S
O1764      C1766   1.277       .  A
O1765     Ni1776   1.922       .  S
C1766      O1772   1.280       .  A
C1766      C2029   1.501       .  S
C1767      C2209   1.454       .  S
H1768      O1769   0.965       .  S
O1769     Ni1777   1.881       .  S
O1769     Ni1771   1.896       .  S
O1769     Ni1776   1.901       .  S
O1770     Ni1771   1.898       .  S
Ni1771     O1775   1.918       .  S
Ni1771     O1773   1.904       .  S
O1772     Ni1777   1.948       .  S
C1774      O1775   1.270       .  A
C1774      C2041   1.479       .  S
O1779     Ni1785   1.905       .  S
O1779      C1800   1.268       .  A
O1780     Ni1803   1.887       .  S
O1780      C1789   1.258       .  A
O1781     Ni1785   1.911       .  S
O1781     Ni1803   1.907   1_554  S
O1781     Ni1797   1.914       .  S
O1781      H1804   0.966       .  S
C1782      O1799   1.270       .  A
C1782      O1791   1.278   1_554  A
C1782      C1996   1.458       .  S
O1783     Ni1802   1.946       .  S
O1783      C1789   1.271       .  A
O1784     Ni1802   1.905       .  S
O1784      C1786   1.267       .  A
Ni1785     O1788   1.918       .  S
Ni1785     O1790   1.916       .  S
C1786      O1796   1.268   1_556  A
C1786      C2149   1.467       .  S
O1787     Ni1803   1.881       .  S
O1787      C1793   1.253       .  A
O1788      C1793   1.272   1_554  A
C1789      C2008   1.483       .  S
O1790      C1792   1.273       .  A
O1791     Ni1802   1.921       .  S
C1792      O1798   1.277   1_554  A
C1792      C2140   1.491       .  S
C1793      C1981   1.446       .  S
H1794      O1795   0.966       .  S
O1795     Ni1803   1.880       .  S
O1795     Ni1797   1.924   1_556  S
O1795     Ni1802   1.909       .  S
O1796     Ni1797   1.916       .  S
Ni1797     O1801   1.931       .  S
Ni1797     O1799   1.897       .  S
O1798     Ni1803   1.947       .  S
C1800      O1801   1.274       .  A
C1800      C1972   1.486       .  S
O1805     Ni1811   1.935       .  S
O1805      C1826   1.276       .  A
O1806     Ni1829   1.910       .  S
O1806      C1815   1.267       .  A
O1807     Ni1811   1.896       .  S
O1807     Ni1829   1.896       .  S
O1807     Ni1823   1.895       .  S
O1807      H1830   0.967       .  S
C1808      O1825   1.280       .  A
C1808      O1817   1.279       .  A
C1808      C1960   1.471       .  S
O1809     Ni1828   1.939       .  S
O1809      C1815   1.276       .  A
O1810     Ni1828   1.918       .  S
O1810      C1812   1.271       .  A
Ni1811     O1814   1.940       .  S
Ni1811     O1816   1.914       .  S
C1812      O1822   1.264       .  A
C1812      C2068   1.473       .  S
O1813     Ni1829   1.871       .  S
O1813      C1819   1.263       .  A
O1814      C1819   1.279       .  A
C1815      C1969   1.476       .  S
O1816      C1818   1.273       .  A
O1817     Ni1828   1.909       .  S
C1818      O1824   1.275       .  A
C1818      C2056   1.497       .  S
C1819      C1948   1.454       .  S
H1820      O1821   0.964       .  S
O1821     Ni1829   1.880       .  S
O1821     Ni1823   1.892       .  S
O1821     Ni1828   1.885       .  S
O1822     Ni1823   1.904       .  S
Ni1823     O1827   1.921       .  S
Ni1823     O1825   1.915       .  S
O1824     Ni1829   1.951       .  S
C1826      O1827   1.272       .  A
C1826      C2044   1.494       .  S
O1831     Ni1837   1.942       .  S
O1831      C1852   1.276       .  A
O1832     Ni1855   1.915       .  S
O1832      C1841   1.275       .  A
O1833     Ni1837   1.918       .  S
O1833     Ni1855   1.908       .  S
O1833     Ni1849   1.933       .  S
O1833      H1856   0.967       .  S
C1834      O1851   1.288       .  A
C1834      O1843   1.280       .  A
O1835     Ni1854   1.931       .  S
O1835      C1841   1.277       .  A
O1836     Ni1854   1.927       .  S
Ni1837     O1840   1.937       .  S
Ni1837     O1842   1.940       .  S
C1838      C2188   1.523       .  S
O1839     Ni1855   1.916       .  S
O1839      C1845   1.275       .  A
O1840      C1845   1.277       .  A
C1841      C1921   1.478       .  S
O1842      C1844   1.280       .  A
O1843     Ni1854   1.912       .  S
C1844      O1850   1.285       .  A
C1844      C2176   1.537       .  S
C1845      C2032   1.485       .  S
H1846      O1847   0.966       .  S
O1847     Ni1855   1.909       .  S
O1847     Ni1849   1.889       .  S
O1847     Ni1854   1.885       .  S
O1848     Ni1849   1.966       .  S
Ni1849     O1853   1.918       .  S
Ni1849     O1851   1.933       .  S
O1850     Ni1855   1.982       .  S
C1852      O1853   1.272       .  A
C1852      C1933   1.496       .  S
O1857     Ni1863   1.939       .  S
O1858     Ni1881   1.891       .  S
O1858      C1867   1.266       .  A
O1859     Ni1863   1.913       .  S
O1859     Ni1881   1.903   1_556  S
O1859      H1882   0.966       .  S
C1860      O1877   1.272       .  A
C1860      O1869   1.287   1_556  A
C1860      C1984   1.465       .  S
O1861     Ni1880   1.968       .  S
O1862     Ni1880   1.938       .  S
O1862      C1864   1.274       .  A
Ni1863     O1866   1.925       .  S
Ni1863     O1868   1.950       .  S
C1864      O1874   1.286   1_554  A
C1864      C2128   1.537       .  S
O1865     Ni1881   1.888       .  S
O1865      C1871   1.268       .  A
O1866      C1871   1.279   1_556  A
C1867      C1909   1.502       .  S
O1868      C1870   1.278       .  A
O1869     Ni1880   1.931       .  S
C1870      O1876   1.285   1_556  A
C1870      C2113   1.552       .  S
C1871      C1993   1.461       .  S
O1873     Ni1875   1.896   1_554  S
O1873     Ni1880   1.890       .  S
O1874     Ni1875   1.980       .  S
Ni1875     O1879   1.901       .  S
Ni1875     O1877   1.891       .  S
O1876     Ni1881   1.985       .  S
C1878      O1879   1.267       .  A
C1878      C1924   1.482       .  S
O1883     Ni1889   1.899       .  S
O1883      C1904   1.263       .  A
O1884     Ni1907   1.923       .  S
O1884      C1893   1.274       .  A
O1885     Ni1889   1.916       .  S
O1885     Ni1907   1.904       .  S
O1885     Ni1901   1.918       .  S
O1885      H1908   0.967       .  S
C1886      O1903   1.281       .  A
C1886      O1895   1.280       .  A
C1886      C1945   1.478       .  S
O1887     Ni1906   1.940       .  S
O1887      C1893   1.279       .  A
O1888     Ni1906   1.933       .  S
O1888      C1890   1.273       .  A
Ni1889     O1894   1.919       .  S
C1890      O1900   1.277       .  A
C1890      C2092   1.512       .  S
O1891      C1897   1.271       .  A
O1892      C1897   1.273       .  A
C1893      C1936   1.495       .  S
O1894      C1896   1.269       .  A
O1895     Ni1906   1.901       .  S
C1896      O1902   1.285       .  A
C1896      C2080   1.527       .  S
C1897      C1957   1.468       .  S
H1898      O1899   0.966       .  S
O1899     Ni1907   1.893       .  S
O1899     Ni1901   1.905       .  S
O1899     Ni1906   1.891       .  S
O1900     Ni1901   1.946       .  S
Ni1901     O1905   1.940       .  S
Ni1901     O1903   1.917       .  S
O1902     Ni1907   1.978       .  S
C1904      O1905   1.270       .  A
C1904      C1912   1.493       .  S
C1909      C1910   1.413       .  A
C1909      C1914   1.417       .  A
C1910      C1911   1.407       .  A
C1910      H1919   1.084       .  S
C1911      C1912   1.411       .  A
C1911      S1915   1.802       .  S
C1912      C1913   1.409       .  A
C1913      C1914   1.406       .  A
C1913      H1920   1.084       .  S
S1915      H1918   1.406       .  S
S1916      H1917   1.407       .  S
C1921      C1922   1.398       .  A
C1921      C1926   1.416       .  A
C1922      C1923   1.396       .  A
C1922      H1931   1.084       .  S
C1923      C1924   1.415       .  A
C1923      S1927   1.803       .  S
C1924      C1925   1.405       .  A
C1925      C1926   1.409       .  A
S1927      H1930   1.406       .  S
C1933      C1938   1.415       .  A
C1934      C1935   1.405       .  A
C1934      H1943   1.084       .  S
C1935      C1936   1.416       .  A
C1935      S1939   1.805       .  S
C1937      C1938   1.411       .  A
C1937      H1944   1.083       .  S
C1938      S1940   1.801       .  S
S1939      H1942   1.406       .  S
S1940      H1941   1.407       .  S
C1945      C1946   1.413       .  A
C1945      C1950   1.417       .  A
C1946      C1947   1.387       .  A
C1946      H1955   1.083       .  S
C1947      C1948   1.401       .  A
C1947      S1951   1.805       .  S
C1948      C1949   1.402       .  A
C1949      C1950   1.394       .  A
C1949      H1956   1.083       .  S
C1950      S1952   1.811       .  S
S1951      H1954   1.407       .  S
S1952      H1953   1.407       .  S
C1957      C1958   1.403       .  A
C1957      C1962   1.413       .  A
C1958      C1959   1.395       .  A
C1958      H1967   1.082       .  S
C1961      C1962   1.388       .  A
C1962      S1964   1.806       .  S
S1963      H1966   1.406   1_565  S
S1964      H1965   1.408       .  S
C1969      C1970   1.403       .  A
C1969      C1974   1.410       .  A
C1970      C1971   1.405       .  A
C1970      H1979   1.084       .  S
C1971      C1972   1.417       .  A
C1971      S1975   1.799       .  S
C1972      C1973   1.407       .  A
C1973      C1974   1.399       .  A
C1973      H1980   1.084       .  S
C1974      S1976   1.804       .  S
S1975      H1978   1.407       .  S
S1976      H1977   1.403       .  S
C1981      C1982   1.398       .  A
C1981      C1986   1.398       .  A
C1982      C1983   1.397       .  A
C1982      H1991   1.084       .  S
C1983      C1984   1.418       .  A
C1983      S1987   1.806       .  S
C1984      C1985   1.404       .  A
C1985      C1986   1.387       .  A
C1985      H1992   1.084   1_556  S
C1986      S1988   1.800   1_556  S
S1987      H1990   1.408       .  S
S1988      H1989   1.409       .  S
C1993      C1994   1.402       .  A
C1993      C1998   1.408   1_554  A
C1994      C1995   1.395       .  A
C1994      H2003   1.084       .  S
C1995      C1996   1.411       .  A
C1995      S1999   1.800       .  S
C1996      C1997   1.402   1_554  A
C1997      C1998   1.390       .  A
C1997      H2004   1.084       .  S
C1998      S2000   1.804       .  S
S1999      H2002   1.402       .  S
S2000      H2001   1.408       .  S
C2005      C2006   1.401       .  A
C2005      C2010   1.412       .  A
C2006      C2007   1.398       .  A
C2006      H2015   1.084       .  S
C2007      C2008   1.414       .  A
C2007      S2011   1.798       .  S
C2008      C2009   1.408       .  A
C2009      C2010   1.402       .  A
C2009      H2016   1.084       .  S
C2010      S2012   1.805       .  S
S2011      H2014   1.407       .  S
S2012      H2013   1.406       .  S
C2017      C2018   1.400       .  A
C2017      C2022   1.419       .  A
C2018      C2019   1.390       .  A
C2018      H2027   1.084   1_565  S
C2019      C2020   1.414       .  A
C2019      S2023   1.802       .  S
C2020      C2021   1.400       .  A
C2021      C2022   1.404       .  A
C2021      H2028   1.083       .  S
C2022      S2024   1.809       .  S
S2023      H2026   1.405       .  S
C2029      C2030   1.413       .  A
C2029      C2034   1.419       .  A
C2030      C2031   1.406       .  A
C2030      H2039   1.082       .  S
C2031      C2032   1.412       .  A
C2031      S2035   1.808       .  S
C2032      C2033   1.403       .  A
C2033      C2034   1.401       .  A
C2033      H2040   1.084       .  S
C2034      S2036   1.800       .  S
S2035      H2038   1.407       .  S
S2036      H2037   1.408       .  S
C2041      C2042   1.402       .  A
C2041      C2046   1.413       .  A
C2042      C2043   1.412       .  A
C2042      H2051   1.083       .  S
C2043      C2044   1.419       .  A
C2043      S2047   1.802       .  S
C2044      C2045   1.404       .  A
C2045      C2046   1.398       .  A
C2045      H2052   1.084       .  S
C2046      S2048   1.802       .  S
S2047      H2050   1.407       .  S
S2048      H2049   1.403       .  S
C2053      C2054   1.403       .  A
C2053      C2058   1.413       .  A
C2054      C2055   1.402       .  A
C2054      H2063   1.084       .  S
C2055      C2056   1.423       .  A
C2055      S2059   1.802       .  S
C2056      C2057   1.409       .  A
C2057      C2058   1.398       .  A
C2057      H2064   1.083       .  S
C2058      S2060   1.804       .  S
S2059      H2062   1.405       .  S
S2060      H2061   1.407       .  S
C2066      C2067   1.404       .  A
C2066      H2075   1.084       .  S
C2067      C2068   1.416       .  A
C2067      S2071   1.804       .  S
C2068      C2069   1.400       .  A
C2069      C2070   1.391       .  A
C2069      H2076   1.084       .  S
S2071      H2074   1.407       .  S
S2072      H2073   1.400       .  S
C2077      C2078   1.409       .  A
C2077      C2082   1.422       .  A
C2078      C2079   1.419       .  A
C2078      H2087   1.082       .  S
C2079      C2080   1.430       .  A
C2079      S2083   1.810       .  S
C2080      C2081   1.408       .  A
C2081      C2082   1.412       .  A
C2081      H2088   1.083       .  S
C2082      S2084   1.793       .  S
S2083      H2086   1.407       .  S
S2084      H2085   1.404       .  S
C2089      C2090   1.407       .  A
C2089      C2094   1.425       .  A
C2090      C2091   1.413       .  A
C2090      H2099   1.082       .  S
C2091      C2092   1.420       .  A
C2091      S2095   1.803       .  S
C2092      C2093   1.407       .  A
C2093      C2094   1.415       .  A
C2093      H2100   1.084       .  S
C2094      S2096   1.802       .  S
S2095      H2098   1.406       .  S
S2096      H2097   1.408       .  S
C2101      C2102   1.406       .  A
C2101      C2106   1.418       .  A
C2102      C2103   1.404       .  A
C2103      C2104   1.418       .  A
C2104      C2105   1.406       .  A
C2105      C2106   1.409       .  A
C2105      H2112   1.084       .  S
C2106      S2108   1.794       .  S
S2108      H2109   1.406       .  S
C2113      C2114   1.419   1_556  A
C2113      C2118   1.428       .  A
C2114      C2115   1.431       .  A
C2114      H2123   1.083       .  S
C2115      C2116   1.427   1_554  A
C2115      S2119   1.796       .  S
C2116      C2117   1.417       .  A
C2117      C2118   1.422       .  A
C2117      H2124   1.083       .  S
C2118      S2120   1.801       .  S
S2119      H2122   1.407       .  S
S2120      H2121   1.408       .  S
C2125      C2126   1.417   1_554  A
C2125      C2130   1.428       .  A
C2126      C2127   1.424       .  A
C2126      H2135   1.083       .  S
C2127      C2128   1.425   1_556  A
C2127      S2131   1.798       .  S
C2128      C2129   1.412       .  A
C2129      C2130   1.421       .  A
C2129      H2136   1.084       .  S
C2130      S2132   1.800       .  S
S2131      H2134   1.403       .  S
S2132      H2133   1.408       .  S
C2137      C2138   1.405       .  A
C2137      C2142   1.416   1_554  A
C2138      C2139   1.402       .  A
C2138      H2147   1.084       .  S
C2139      C2140   1.416       .  A
C2139      S2143   1.800       .  S
C2140      C2141   1.406   1_554  A
C2141      C2142   1.403       .  A
C2141      H2148   1.084       .  S
C2142      S2144   1.800       .  S
S2143      H2146   1.407       .  S
S2144      H2145   1.407       .  S
C2149      C2150   1.398   1_556  A
C2149      C2154   1.410       .  A
C2150      C2151   1.392       .  A
C2150      H2159   1.083       .  S
C2151      C2152   1.414   1_554  A
C2151      S2155   1.790       .  S
C2152      C2153   1.407       .  A
C2153      C2154   1.397       .  A
C2153      H2160   1.084       .  S
C2154      S2156   1.803       .  S
S2155      H2158   1.406       .  S
S2156      H2157   1.407       .  S
C2161      C2162   1.413       .  A
C2161      C2166   1.426       .  A
C2162      C2163   1.411       .  A
C2162      H2171   1.084       .  S
C2163      C2164   1.414       .  A
C2163      S2167   1.804       .  S
C2164      C2165   1.400       .  A
C2165      C2166   1.407       .  A
S2167      H2170   1.405       .  S
C2173      C2174   1.412       .  A
C2173      C2178   1.419       .  A
C2174      C2175   1.421       .  A
C2174      H2183   1.084       .  S
C2175      C2176   1.429       .  A
C2175      S2179   1.800       .  S
C2176      C2177   1.415       .  A
C2177      C2178   1.416       .  A
C2177      H2184   1.083       .  S
C2178      S2180   1.803       .  S
S2179      H2182   1.407       .  S
S2180      H2181   1.407       .  S
C2185      C2186   1.414       .  A
C2185      C2190   1.427       .  A
C2186      C2187   1.417       .  A
C2186      H2195   1.083       .  S
C2187      C2188   1.420       .  A
C2187      S2191   1.803       .  S
C2188      C2189   1.412       .  A
C2189      C2190   1.422       .  A
C2189      H2196   1.084       .  S
C2190      S2192   1.801       .  S
S2191      H2194   1.407       .  S
S2192      H2193   1.408       .  S
C2198      C2199   1.392       .  A
C2198      H2207   1.084       .  S
C2199      C2200   1.408       .  A
C2199      S2203   1.805       .  S
C2200      C2201   1.401       .  A
C2201      C2202   1.397       .  A
C2201      H2208   1.082       .  S
S2203      H2206   1.408       .  S
S2204      H2205   1.407       .  S
C2209      C2210   1.400       .  A
C2209      C2214   1.404       .  A
C2210      C2211   1.392       .  A
C2210      H2219   1.085       .  S
C2211      C2212   1.416       .  A
C2211      S2215   1.803       .  S
C2212      C2213   1.409       .  A
C2213      C2214   1.392       .  A
C2213      H2220   1.084       .  S
C2214      S2216   1.804       .  S
S2215      H2218   1.408       .  S
S2216      H2217   1.407       .  S
C2221      C2226   1.414       .  A
C2222      C2223   1.408       .  A
C2222      H2231   1.084       .  S
C2223      C2224   1.415       .  A
C2223      S2227   1.803       .  S
C2224      C2225   1.408   1_565  A
C2226      S2228   1.803       .  S
S2227      H2230   1.406       .  S
S2228      H2229   1.407       .  S
