geometry optimzed in LAMMPS
_audit_creation_date              2020-12-01 
_audit_creation_method            'lammps2cif' 
_symmetry_space_group_name_H-M    'P1' 
_symmetry_Int_Tables_number       1 
_symmetry_cell_setting            triclinic 
loop_ 
_symmetry_equiv_pos_as_xyz 
  x,y,z 
_cell_length_a                    36.98889194 
_cell_length_b                    37.243949864708796 
_cell_length_c                    34.00838563809201 
_cell_angle_alpha                 90.36527231099114 
_cell_angle_beta                  90.14337684846693 
_cell_angle_gamma                 120.70109651597309 
loop_ 
_atom_site_label 
_atom_site_type_symbol 
_atom_site_fract_x 
_atom_site_fract_y 
_atom_site_fract_z 
_atom_site_charge 
C1          C  0.33368478  0.66222776  0.21299223     0.47400
H2          H  0.33523148  0.66121558  0.18026229    -0.01600
C3          C  0.33067731  0.66483524  0.28931603     0.47500
H4          H  0.32945740  0.66583011  0.32206730    -0.01600
C5          C  0.29247657  0.62717411  0.23033534    -0.15300
C6          C  0.36867925  0.65908365  0.23402064    -0.15000
C7          C  0.33799497  0.70278248  0.22890706    -0.15400
C8          C  0.29126355  0.62831402  0.27062018    -0.15400
C9          C  0.36684329  0.66010348  0.27414701    -0.15000
C10         C  0.33636489  0.70425306  0.26921145    -0.15300
C11         C  0.66516211  0.33997389  0.21052125     0.47400
H12         H  0.66520529  0.34225461  0.17781625    -0.01600
C13         C  0.66522731  0.33536566  0.28682835     0.47500
H14         H  0.66534304  0.33342987  0.31956931    -0.01600
C15         C  0.62724615  0.30017164  0.22681250    -0.15300
C16         C  0.70378785  0.34035497  0.22727778    -0.15000
C17         C  0.66432143  0.37592952  0.23147910    -0.15400
C18         C  0.62725619  0.29800133  0.26716988    -0.15400
C19         C  0.70354671  0.33744473  0.26738241    -0.15000
C20         C  0.66430467  0.37349489  0.27165384    -0.15300
O21         O  0.95137101  0.36341676  0.45883640    -0.72500
O22         O  0.03857213  0.42214856  0.03448606    -0.72500
O23         O  0.95293892  0.37407948  0.03466211    -0.72500
O24         O  0.03701284  0.41121521  0.45950849    -0.72600
O25         O  0.03318810  0.46849758  0.45100176    -0.72500
O26         O  0.94761718  0.43037153  0.02446807    -0.72500
O27         O  0.03293168  0.47841629  0.02705304    -0.72500
O28         O  0.94921270  0.42136839  0.44768346    -0.72500
Ni29       Ni  0.99353208  0.39080368  0.49885407     1.25400
Ni30       Ni  0.98944402  0.45196939  0.48789111     1.25400
C31         C  0.93647629  0.38296001  0.44049677     0.89700
C32         C  0.05035126  0.46007340  0.04338462     0.89700
C33         C  0.93518094  0.39542518  0.04126918     0.89700
C34         C  0.04923020  0.44616608  0.44239646     0.89900
O35         O  0.56543993  0.53329031  0.05309184    -0.72500
O36         O  0.51929248  0.56539777  0.47393394    -0.72500
O37         O  0.55762664  0.51988908  0.47374522    -0.72500
O38         O  0.52864221  0.57917438  0.05020676    -0.72600
O39         O  0.59129343  0.63709390  0.04257527    -0.72500
O40         O  0.61984539  0.57737042  0.46466762    -0.72500
O41         O  0.58134202  0.62308996  0.46349689    -0.72500
O42         O  0.62853764  0.59027071  0.04483933    -0.72500
Ni43       Ni  0.54197076  0.54594552  0.51302213     1.25400
Ni44       Ni  0.60845078  0.60809979  0.50297234     1.25400
C45         C  0.60429625  0.55584606  0.06243805     0.89700
C46         C  0.54177937  0.60034306  0.45674273     0.89700
C47         C  0.59348980  0.53887499  0.45696821     0.89700
C48         C  0.55513105  0.61723863  0.05880507     0.89900
O49         O  0.48180586  0.04125377  0.04060822    -0.72500
O50         O  0.44698038  0.96776663  0.45240359    -0.72500
O51         O  0.48385045  0.05095517  0.46114553    -0.72500
O52         O  0.44522568  0.95781613  0.03198962    -0.72600
O53         O  0.38242634  0.95227803  0.03575460    -0.72500
O54         O  0.42087354  0.04518752  0.46035451    -0.72500
O55         O  0.38340135  0.96064173  0.45408860    -0.72500
O56         O  0.41942311  0.03687208  0.04193981    -0.72500
Ni57       Ni  0.46597705  0.00351386  0.99699532     1.25400
Ni58       Ni  0.39859377  0.99748578  0.99923961     1.25400
C59         C  0.45690728  0.05213639  0.05523384     0.89700
C60         C  0.40934529  0.95131471  0.43915909     0.89700
C61         C  0.45935348  0.06343644  0.44920848     0.89700
C62         C  0.40777407  0.93971082  0.04527222     0.89900
C63         C  0.52531314  0.20971023  0.18649888     0.14600
C64         C  0.54091308  0.19352922  0.15816413     0.01600
C65         C  0.58401326  0.21560304  0.14939333     0.16600
C66         C  0.61164559  0.25116113  0.17081386     0.26000
C67         C  0.59660663  0.26611963  0.20074693    -0.40300
C68         C  0.55297184  0.24632320  0.20716346     0.33000
C69         C  0.51335473  0.15334222  0.13784860     0.01700
F70         F  0.59957650  0.20204578  0.12050352    -0.12700
F71         F  0.53725731  0.26192013  0.23390117    -0.13200
C72         C  0.47920212  0.14745566  0.11473313     0.16600
C73         C  0.45865611  0.11274688  0.08960132     0.26000
C74         C  0.47260241  0.08398276  0.08682644    -0.40300
C75         C  0.50473478  0.08842193  0.11217523     0.33000
C76         C  0.52446270  0.12245104  0.13786092     0.14700
F77         F  0.46775490  0.17676607  0.11429620    -0.12600
F78         F  0.51800467  0.06049667  0.11126774    -0.13200
F79         F  0.42740319  0.10915127  0.06583670    -0.15400
F80         F  0.55597033  0.12638780  0.16150825    -0.14000
F81         F  0.48372315  0.18931811  0.19519411    -0.14000
F82         F  0.65341707  0.26950257  0.16358955    -0.15400
C83         C  0.47138491  0.13735321  0.36663895     0.14600
C84         C  0.51514865  0.16456755  0.36741137     0.01600
C85         C  0.53944989  0.16023907  0.39643934     0.16600
C86         C  0.52075690  0.12838139  0.42376999     0.26000
C87         C  0.47711432  0.09967278  0.42247920    -0.40300
C88         C  0.45233731  0.10492138  0.39410650     0.33000
C89         C  0.53713718  0.19650487  0.33722224     0.01700
F90         F  0.58178383  0.18652510  0.39765216    -0.12700
F91         F  0.41028458  0.07765736  0.39171727    -0.13200
C92         C  0.54288065  0.23650365  0.34216542     0.16600
C93         C  0.57203436  0.26950305  0.31904930     0.26000
C94         C  0.59539672  0.26269181  0.29052710    -0.40300
C95         C  0.58876964  0.22238207  0.28495801     0.33000
C96         C  0.55962742  0.18946639  0.30801276     0.14700
F97         F  0.52181182  0.24393465  0.37065954    -0.12600
F98         F  0.61190351  0.21531273  0.25848576    -0.13200
F99         F  0.57782200  0.30817333  0.32483087    -0.15400
F100        F  0.55491693  0.15106506  0.30338602    -0.14000
F101        F  0.44752342  0.14133924  0.33857808    -0.14000
F102        F  0.54573717  0.12546540  0.45134906    -0.15400
C103        C  0.87677827  0.36087145  0.34635602     0.14600
C104        C  0.83537808  0.34114389  0.36063003     0.01600
C105        C  0.82761538  0.32780684  0.39994679     0.16600
C106        C  0.86117488  0.33745024  0.42533259     0.26000
C107        C  0.90259090  0.36119434  0.41187014    -0.40300
C108        C  0.91028738  0.37149941  0.37204596     0.33000
C109        C  0.80154023  0.33943393  0.33600067     0.01700
F110        F  0.78806784  0.30891257  0.41469132    -0.12700
F111        F  0.95032734  0.39416104  0.35868463    -0.13200
C112        C  0.76346480  0.30170142  0.32982405     0.16600
C113        C  0.73135474  0.30111547  0.30755179     0.26000
C114        C  0.73737536  0.33796810  0.29053938    -0.40300
C115        C  0.77522967  0.37558523  0.29654506     0.33000
C116        C  0.80690905  0.37647716  0.31957219     0.14700
F117        F  0.75757354  0.26548183  0.34501052    -0.12600
F118        F  0.78105972  0.41157266  0.28080443    -0.13200
F119        F  0.69460706  0.26454561  0.30208160    -0.15400
F120        F  0.84240803  0.41376346  0.32679079    -0.14000
F121        F  0.88486017  0.37216996  0.30804835    -0.14000
F122        F  0.85350475  0.32720921  0.46391350    -0.15400
C123        C  0.79163144  0.38676486  0.15366222     0.14600
C124        C  0.80023809  0.35439085  0.14840153     0.01600
C125        C  0.77799642  0.31770456  0.17051117     0.16600
C126        C  0.74730988  0.31339324  0.19722373     0.26000
C127        C  0.73829052  0.34553059  0.20173254    -0.40300
C128        C  0.76066636  0.38218500  0.17986859     0.33000
C129        C  0.83258115  0.35948076  0.11985337     0.01700
F130        F  0.78510580  0.28565625  0.16530895    -0.12700
F131        F  0.75272876  0.41376497  0.18416747    -0.13200
C132        C  0.86810505  0.35799939  0.13228363     0.16600
C133        C  0.90095821  0.36768483  0.10611811     0.26000
C134        C  0.89888940  0.37963714  0.06754821    -0.40300
C135        C  0.86267379  0.37948768  0.05468927     0.33000
C136        C  0.82957771  0.36904457  0.08051266     0.14700
F137        F  0.87202756  0.34954020  0.17029494    -0.12600
F138        F  0.85961555  0.38996732  0.01714157    -0.13200
F139        F  0.93588398  0.36807477  0.11910953    -0.15400
F140        F  0.79491506  0.36914434  0.06736881    -0.14000
F141        F  0.81355779  0.42305447  0.13361236    -0.14000
F142        F  0.72529692  0.27729588  0.21748227    -0.15400
C143        C  0.60740298  0.49983796  0.15268898     0.14600
C144        C  0.64285069  0.49640667  0.14524696     0.01600
C145        C  0.66895620  0.51785706  0.11334321     0.16600
C146        C  0.65809017  0.54011417  0.08765391     0.26000
C147        C  0.62076828  0.54063346  0.09340929    -0.40300
C148        C  0.59624843  0.52150825  0.12679786     0.33000
C149        C  0.64922102  0.46625675  0.16769895     0.01700
F150        F  0.70310818  0.51458188  0.10536463    -0.12700
F151        F  0.56062711  0.52257771  0.13355363    -0.13200
C152        C  0.61789163  0.42375400  0.16654347     0.16600
C153        C  0.62328890  0.39454750  0.18702098     0.26000
C154        C  0.65968703  0.40740696  0.20958208    -0.40300
C155        C  0.69120199  0.44980853  0.21082864     0.33000
C156        C  0.68617603  0.47910941  0.18962291     0.14700
F157        F  0.58220789  0.41045593  0.14505614    -0.12600
F158        F  0.72697893  0.46259441  0.23198889    -0.13200
F159        F  0.59240991  0.35372518  0.18568212    -0.15400
F160        F  0.71701240  0.51994112  0.19077500    -0.14000
F161        F  0.58249886  0.48045257  0.18407848    -0.14000
F162        F  0.68198877  0.55800154  0.05537115    -0.15400
C163        C  0.67615760  0.44749687  0.35366983     0.14600
C164        C  0.63775680  0.44651822  0.35062122     0.01600
C165        C  0.60858938  0.42189482  0.32134688     0.16600
C166        C  0.61758094  0.39848349  0.29548199     0.26000
C167        C  0.65611044  0.39984362  0.29811605    -0.40300
C168        C  0.68522016  0.42406228  0.32755574     0.33000
C169        C  0.62731918  0.47024863  0.37840717     0.01700
F170        F  0.57122657  0.42034996  0.31799707    -0.12700
F171        F  0.72216876  0.42481222  0.33105802    -0.13200
C172        C  0.65217606  0.51389854  0.38056790     0.16600
C173        C  0.64107023  0.53642990  0.40573022     0.23900
C174        C  0.60484343  0.51549672  0.42925117    -0.40300
C175        C  0.58021929  0.47152857  0.42705515     0.33000
C176        C  0.59143939  0.44923278  0.40189326     0.14700
F177        F  0.68671777  0.53475291  0.35762273    -0.12600
F178        F  0.54557516  0.44974587  0.44969438    -0.13200
F179        F  0.66559420  0.57869978  0.40660890    -0.15400
F180        F  0.56745416  0.40689404  0.40076570    -0.14000
F181        F  0.70421710  0.47021144  0.38253012    -0.14000
F182        F  0.58786453  0.37301312  0.26894374    -0.15400
C183        C  0.18552815  0.57645202  0.18164669     0.14600
C184        C  0.18901023  0.55131620  0.15268552     0.01600
C185        C  0.22607515  0.54952632  0.15073183     0.16600
C186        C  0.25952043  0.57347654  0.17668500     0.26000
C187        C  0.25609660  0.59903225  0.20513624    -0.40300
C188        C  0.21877332  0.60011344  0.20761689     0.33000
C189        C  0.15417116  0.52789842  0.12418640     0.01700
F190        F  0.23035567  0.52563676  0.12294761    -0.12700
F191        F  0.21515216  0.62545756  0.23417199    -0.13200
C192        C  0.13991645  0.54917655  0.10075334     0.16600
C193        C  0.10568369  0.52719126  0.07523233     0.26000
C194        C  0.08535869  0.48330305  0.07201741    -0.40300
C195        C  0.10016195  0.46214517  0.09529089     0.33000
C196        C  0.13411231  0.48425210  0.12115891     0.14700
F197        F  0.15967227  0.59151602  0.10215467    -0.12600
F198        F  0.08154887  0.41992783  0.09352645    -0.13200
F199        F  0.09310718  0.54918245  0.05319695    -0.15400
F200        F  0.14683945  0.46287898  0.14392574    -0.14000
F201        F  0.14990129  0.57828918  0.18457705    -0.14000
F202        F  0.29526463  0.57181773  0.17406607    -0.15400
C203        C  0.15215176  0.48005468  0.39046739     0.14600
C204        C  0.15216846  0.50851516  0.36338191     0.01600
C205        C  0.11574020  0.51080348  0.35858988     0.16600
C206        C  0.08136031  0.48824156  0.38283641     0.26000
C207        C  0.08236388  0.46241616  0.41228967    -0.40300
C208        C  0.11724155  0.45694085  0.41482545     0.33000
C209        C  0.19052952  0.53872342  0.34214186     0.01700
F210        F  0.11416326  0.53650024  0.33135029    -0.12700
F211        F  0.11882739  0.43173862  0.44259212    -0.13200
C212        C  0.21057607  0.52536994  0.31581730     0.16600
C213        C  0.24345460  0.55448697  0.29234140     0.26000
C214        C  0.25647858  0.59714405  0.29496616    -0.40300
C215        C  0.23766160  0.61056619  0.32245251     0.33000
C216        C  0.20513076  0.58167414  0.34596786     0.14700
F217        F  0.19752606  0.48419518  0.31200398    -0.12600
F218        F  0.24988985  0.65160803  0.32562147    -0.13200
F219        F  0.26293712  0.54118599  0.26745491    -0.15400
F220        F  0.18721867  0.59556457  0.37213023    -0.14000
F221        F  0.18672372  0.47660775  0.39504504    -0.14000
F222        F  0.04750430  0.49295827  0.37840057    -0.15400
C223        C  0.43511445  0.61976729  0.18878333     0.14600
C224        C  0.46562112  0.65574039  0.16918021     0.01600
C225        C  0.46491095  0.69293399  0.17251699     0.16600
C226        C  0.43306286  0.69370873  0.19350832     0.26000
C227        C  0.40229709  0.65773140  0.21244826    -0.40300
C228        C  0.40378105  0.62092223  0.21064331     0.33000
C229        C  0.49532779  0.65335945  0.14202255     0.01700
F230        F  0.49476099  0.72832944  0.15487401    -0.12700
F231        F  0.37405644  0.58587625  0.22884678    -0.13200
C232        C  0.49466281  0.66229102  0.10198582     0.16600
C233        C  0.51830251  0.65468935  0.07498648     0.26000
C234        C  0.54236901  0.63762965  0.08761241    -0.40300
C235        C  0.54514890  0.63102761  0.12776509     0.33000
C236        C  0.52189500  0.63910756  0.15497614     0.14700
F237        F  0.46856683  0.67520603  0.08859837    -0.12600
F238        F  0.56816407  0.61417011  0.14015957    -0.13200
F239        F  0.51514308  0.66086146  0.03612778    -0.15400
F240        F  0.52378643  0.63126249  0.19362910    -0.14000
F241        F  0.43449743  0.58312507  0.18520894    -0.14000
F242        F  0.43241225  0.72971321  0.19553790    -0.15400
C243        C  0.46465995  0.67978926  0.32889920     0.14600
C244        C  0.44798508  0.64462835  0.35338216     0.01600
C245        C  0.40464870  0.61513330  0.35164301     0.16600
C246        C  0.37851597  0.62068446  0.32603726     0.26000
C247        C  0.39526087  0.65526164  0.30113792    -0.40300
C248        C  0.43841192  0.68500977  0.30283507     0.33000
C249        C  0.47528634  0.63795450  0.38054256     0.01700
F250        F  0.38767783  0.58033112  0.37415788    -0.12700
F251        F  0.45483986  0.71962180  0.28014139    -0.13200
C252        C  0.46414786  0.62917929  0.42030374     0.16600
C253        C  0.48603271  0.61691640  0.44482770     0.26000
C254        C  0.52069861  0.61519025  0.43061740    -0.40300
C255        C  0.53356968  0.62627338  0.39160376     0.33000
C256        C  0.51057041  0.63698571  0.36646315     0.14700
F257        F  0.43153750  0.63179716  0.43524881    -0.12600
F258        F  0.56676395  0.62431918  0.37731297    -0.13200
F259        F  0.47319922  0.60644275  0.48255916    -0.15400
F260        F  0.52143081  0.64428520  0.32798540    -0.14000
F261        F  0.50609569  0.70943741  0.33083192    -0.14000
F262        F  0.33686250  0.59168895  0.32493853    -0.15400
C263        C  0.39350620  0.80905401  0.18083648     0.14600
C264        C  0.36434754  0.80372746  0.15153096     0.01600
C265        C  0.32680720  0.76520222  0.14749379     0.16600
C266        C  0.31846760  0.73225152  0.17254422     0.26000
C267        C  0.34712895  0.73783169  0.20250487    -0.40300
C268        C  0.38479448  0.77645308  0.20643807     0.33000
C269        C  0.37408038  0.83776277  0.12391573     0.01700
F270        F  0.29869344  0.75938185  0.11879729    -0.12700
F271        F  0.41359154  0.78227102  0.23441414    -0.13200
C272        C  0.40257010  0.84598063  0.09342947     0.16600
C273        C  0.41274843  0.87862717  0.06750709     0.26000
C274        C  0.39444319  0.90366178  0.07157230    -0.40300
C275        C  0.36513917  0.89476582  0.10174590     0.33000
C276        C  0.35523164  0.86211582  0.12791288     0.14700
F277        F  0.42045200  0.82219433  0.08874714    -0.12600
F278        F  0.34730579  0.91852791  0.10680174    -0.13200
F279        F  0.44023172  0.88540265  0.03807716    -0.15400
F280        F  0.32802719  0.85481420  0.15771482    -0.14000
F281        F  0.43051905  0.84575959  0.18439029    -0.14000
F282        F  0.28215262  0.69507093  0.16795762    -0.15400
C283        C  0.33059247  0.79837164  0.30330141     0.14600
C284        C  0.36241432  0.81517126  0.33212208     0.01600
C285        C  0.38420824  0.79449476  0.34111848     0.16600
C286        C  0.37499274  0.75803394  0.32111477     0.26000
C287        C  0.34360526  0.74139841  0.29190636    -0.40300
C288        C  0.32095027  0.76144770  0.28354138     0.33000
C289        C  0.37242377  0.85341032  0.35416843     0.01700
F290        F  0.41433373  0.80953768  0.36961560    -0.12700
F291        F  0.28939711  0.74517934  0.25646617    -0.13200
C292        C  0.34199125  0.85413763  0.37819153     0.16600
C293        C  0.35344271  0.88727598  0.40449354     0.26000
C294        C  0.39560427  0.92002702  0.40718663    -0.40300
C295        C  0.42536079  0.92050543  0.38115767     0.33000
C296        C  0.41379593  0.88751719  0.35479443     0.14700
F297        F  0.30184891  0.82136470  0.37817850    -0.12600
F298        F  0.46596411  0.95238541  0.38190803    -0.13200
F299        F  0.32390698  0.88567503  0.42923492    -0.15400
F300        F  0.44339050  0.88803597  0.33085173    -0.14000
F301        F  0.30936243  0.81804275  0.29396945    -0.14000
F302        F  0.39779164  0.73978675  0.32950642    -0.15400
C303        C  0.33426619  0.66401044  0.70939894     0.47400
H304        H  0.33530350  0.66361218  0.67661679    -0.01600
C305        C  0.33304531  0.66560232  0.78582609     0.47500
H306        H  0.33255228  0.66594751  0.81863288    -0.01600
C307        C  0.29340660  0.62873810  0.72705122    -0.15300
C308        C  0.36961717  0.66057375  0.72916724    -0.15000
C309        C  0.33872811  0.70425161  0.72629899    -0.15400
C310        C  0.29330256  0.62922626  0.76746136    -0.15400
C311        C  0.36884206  0.66123957  0.76925281    -0.15000
C312        C  0.33798353  0.70520759  0.76673983    -0.15300
C313        C  0.66237215  0.33869863  0.71344385     0.47400
H314        H  0.66251061  0.34120104  0.68075278    -0.01600
C315        C  0.66242532  0.33375921  0.78970444     0.47500
H316        H  0.66253755  0.33164630  0.82242691    -0.01600
C317        C  0.62432337  0.29893733  0.72950920    -0.15300
C318        C  0.70082448  0.33877481  0.73003519    -0.15000
C319        C  0.66189254  0.37472588  0.73463285    -0.15400
C320        C  0.62423082  0.29667937  0.76986982    -0.15400
C321        C  0.70061223  0.33555364  0.77009710    -0.15000
C322        C  0.66184669  0.37219852  0.77480058    -0.15300
O323        O  0.95330254  0.36394464  0.95600501    -0.72500
O324        O  0.03526774  0.42208741  0.53809973    -0.72500
O325        O  0.94978046  0.37501724  0.53717838    -0.72500
O326        O  0.03879031  0.41248497  0.95543960    -0.72600
O327        O  0.03429265  0.46955617  0.94870327    -0.72500
O328        O  0.94534724  0.43150962  0.52511364    -0.72500
O329        O  0.03034149  0.47855130  0.52882813    -0.72500
O330        O  0.95028754  0.42168096  0.94659159    -0.72500
Ni331      Ni  0.99614117  0.39108740  0.99554463     1.25400
Ni332      Ni  0.99118084  0.45200373  0.98653057     1.25400
C333        C  0.93780476  0.38346192  0.93860311     0.89700
C334        C  0.04718407  0.46020357  0.54614933     0.89700
C335        C  0.93250146  0.39697957  0.54281751     0.89700
C336        C  0.05043556  0.44760358  0.93891307     0.89900
O337        O  0.56859917  0.53089128  0.55200216    -0.72500
O338        O  0.51963465  0.56850617  0.97230442    -0.72500
O339        O  0.55701604  0.52214323  0.97463949    -0.72500
O340        O  0.53085526  0.57581952  0.55170616    -0.72600
O341        O  0.59240254  0.63453173  0.54218669    -0.72500
O342        O  0.61950629  0.57946796  0.96595273    -0.72500
O343        O  0.58199357  0.62628727  0.96351756    -0.72500
O344        O  0.63089624  0.58879184  0.54323733    -0.72500
Ni345      Ni  0.54055516  0.54876942  0.01269746     1.25400
Ni346      Ni  0.60768760  0.61043100  0.00383014     1.25400
C347        C  0.60751715  0.55416779  0.56083274     0.89700
C348        C  0.54264540  0.60364400  0.95559518     0.89700
C349        C  0.59318623  0.54090477  0.95838666     0.89700
C350        C  0.55693074  0.61418377  0.55955027     0.89900
O351        O  0.48144450  0.04306179  0.53971696    -0.72500
O352        O  0.44555090  0.96541148  0.95355438    -0.72500
O353        O  0.48278053  0.04871115  0.96212840    -0.72500
O354        O  0.44526239  0.95967802  0.53082951    -0.72600
O355        O  0.38235798  0.95404926  0.53355226    -0.72500
O356        O  0.41999205  0.04328959  0.96260221    -0.72500
O357        O  0.38205237  0.95844893  0.95639740    -0.72500
O358        O  0.41901670  0.03862226  0.53991336    -0.72500
Ni359      Ni  0.46653251  0.00560654  0.49600768     1.25400
Ni360      Ni  0.39903246  0.99939173  0.49703657     1.25400
C361        C  0.45621475  0.05373578  0.55391068     0.89700
C362        C  0.40761374  0.94881389  0.94109755     0.89700
C363        C  0.45832820  0.06155469  0.95102370     0.89700
C364        C  0.40756128  0.94143550  0.54349698     0.89900
C365        C  0.52271070  0.20884937  0.68780883     0.14600
C366        C  0.53859062  0.19309526  0.65933271     0.01600
C367        C  0.58182864  0.21509876  0.65120825     0.16600
C368        C  0.60924604  0.25026215  0.67322595     0.26000
C369        C  0.59389641  0.26494441  0.70316247    -0.40300
C370        C  0.55017440  0.24508198  0.70911136     0.33000
C371        C  0.51119007  0.15335218  0.63825801     0.01700
F372        F  0.59771918  0.20186396  0.62233185    -0.12700
F373        F  0.53415588  0.26028833  0.73592781    -0.13200
C374        C  0.47776814  0.14825019  0.61445315     0.16600
C375        C  0.45758185  0.11401900  0.58869538     0.26000
C376        C  0.47122232  0.08501234  0.58599046    -0.40300
C377        C  0.50250804  0.08862038  0.61201950     0.33000
C378        C  0.52186340  0.12215521  0.63827481     0.14700
F379        F  0.46675621  0.17788254  0.61401662    -0.12600
F380        F  0.51534279  0.06035205  0.61123926    -0.13200
F381        F  0.42703390  0.11111964  0.56435141    -0.15400
F382        F  0.55265200  0.12534278  0.66249626    -0.14000
F383        F  0.48099773  0.18839385  0.69597993    -0.14000
F384        F  0.65109316  0.26852002  0.66648774    -0.15400
C385        C  0.46886817  0.13943607  0.87308143     0.14600
C386        C  0.51282037  0.16446181  0.87099015     0.01600
C387        C  0.53803966  0.15765385  0.89694172     0.16600
C388        C  0.52000018  0.12513218  0.92359329     0.26000
C389        C  0.47597696  0.09830251  0.92486101    -0.40300
C390        C  0.45041275  0.10637459  0.89994385     0.33000
C391        C  0.53394357  0.19607874  0.84039106     0.01700
F392        F  0.58060424  0.18209825  0.89565377    -0.12700
F393        F  0.40793855  0.08132964  0.90028472    -0.13200
C394        C  0.54007557  0.23623201  0.84526968     0.16600
C395        C  0.56911718  0.26891825  0.82179692     0.26000
C396        C  0.59201686  0.26162557  0.79312288    -0.40300
C397        C  0.58474873  0.22111662  0.78745717     0.33000
C398        C  0.55557571  0.18850033  0.81068050     0.14700
F399        F  0.51974571  0.24418065  0.87412731    -0.12600
F400        F  0.60740446  0.21355570  0.76083458    -0.13200
F401        F  0.57542000  0.30779143  0.82751477    -0.15400
F402        F  0.55021124  0.14984490  0.80591026    -0.14000
F403        F  0.44411035  0.14603025  0.84820677    -0.14000
F404        F  0.54604936  0.11977859  0.94788116    -0.15400
C405        C  0.87662612  0.36286700  0.84536737     0.14600
C406        C  0.83528704  0.34031671  0.85976059     0.01600
C407        C  0.82848247  0.32488126  0.89838199     0.16600
C408        C  0.86270919  0.33528279  0.92320653     0.26000
C409        C  0.90378566  0.36189320  0.90993005    -0.40300
C410        C  0.91069775  0.37430197  0.87056409     0.33000
C411        C  0.80042012  0.33821641  0.83641073     0.01700
F412        F  0.78901313  0.30308218  0.91320612    -0.12700
F413        F  0.95039040  0.39961002  0.85726708    -0.13200
C414        C  0.76325050  0.29997706  0.82885531     0.16600
C415        C  0.73037804  0.29912326  0.80757563     0.26000
C416        C  0.73477559  0.33627373  0.79292055    -0.40300
C417        C  0.77171121  0.37433905  0.80031108     0.33000
C418        C  0.80401696  0.37544390  0.82245544     0.14700
F419        F  0.75903517  0.26356426  0.84159892    -0.12600
F420        F  0.77621236  0.41050087  0.78644724    -0.13200
F421        F  0.69453884  0.26206599  0.80070385    -0.15400
F422        F  0.83849622  0.41307047  0.83110650    -0.14000
F423        F  0.88395694  0.37616448  0.80756403    -0.14000
F424        F  0.85574842  0.32277736  0.96125833    -0.15400
C425        C  0.78956519  0.38888003  0.65771126     0.14600
C426        C  0.79804417  0.35672267  0.65050616     0.01600
C427        C  0.77537651  0.31885061  0.67082556     0.16600
C428        C  0.74451161  0.31324068  0.69788085     0.26000
C429        C  0.73569869  0.34524023  0.70442119    -0.40300
C430        C  0.75838308  0.38299583  0.68419998     0.33000
C431        C  0.83077249  0.36316121  0.62194343     0.01700
F432        F  0.78228591  0.28696828  0.66353389    -0.12700
F433        F  0.75046013  0.41434308  0.69027044    -0.13200
C434        C  0.86567034  0.36038421  0.63392364     0.16600
C435        C  0.89830478  0.36977562  0.60765672     0.26000
C436        C  0.89661197  0.38258849  0.56935968    -0.40300
C437        C  0.86131288  0.38450893  0.55711087     0.33000
C438        C  0.82847662  0.37454759  0.58310922     0.14700
F439        F  0.86910513  0.35067126  0.67162098    -0.12600
F440        F  0.85877464  0.39626093  0.51994315    -0.13200
F441        F  0.93266430  0.36887316  0.62030016    -0.15400
F442        F  0.79465250  0.37654152  0.57055022    -0.14000
F443        F  0.81178168  0.42617551  0.63929986    -0.14000
F444        F  0.72212312  0.27610000  0.71644226    -0.15400
C445        C  0.61283456  0.50208959  0.65270658     0.14600
C446        C  0.64692703  0.49666378  0.64461763     0.01600
C447        C  0.67195403  0.51576851  0.61147490     0.16600
C448        C  0.66102102  0.53753983  0.58518282     0.26000
C449        C  0.62479197  0.53987319  0.59176944    -0.40300
C450        C  0.60162313  0.52321890  0.62631354     0.33000
C451        C  0.65205016  0.46615673  0.66763662     0.01700
F452        F  0.70485502  0.51056061  0.60302747    -0.12700
F453        F  0.56697664  0.52587358  0.63361905    -0.13200
C454        C  0.61955150  0.42411906  0.66699732     0.16600
C455        C  0.62297904  0.39463720  0.68901917     0.26000
C456        C  0.65854921  0.40681607  0.71259874    -0.40300
C457        C  0.69119975  0.44879681  0.71341587     0.33000
C458        C  0.68821121  0.47832487  0.69053993     0.14700
F459        F  0.58456570  0.41159031  0.64463464    -0.12600
F460        F  0.72615649  0.46089887  0.73566466    -0.13200
F461        F  0.59113847  0.35420434  0.68794190    -0.15400
F462        F  0.72019411  0.51868085  0.69101735    -0.14000
F463        F  0.58895182  0.48474437  0.68513112    -0.14000
F464        F  0.68350284  0.55302437  0.55170545    -0.15400
C465        C  0.67533903  0.44748294  0.85645147     0.14600
C466        C  0.63701523  0.44667348  0.85386114     0.01600
C467        C  0.60721458  0.42153278  0.82524862     0.16600
C468        C  0.61579857  0.39794986  0.79911354     0.26000
C469        C  0.65417703  0.39892615  0.80141084    -0.40300
C470        C  0.68366860  0.42326460  0.83058335     0.33000
C471        C  0.62723775  0.47107360  0.88149135     0.01700
F472        F  0.56964242  0.41966920  0.82284826    -0.12700
F473        F  0.72032703  0.42346114  0.83403108    -0.13200
C474        C  0.64951877  0.51483031  0.88016215     0.16600
C475        C  0.63836048  0.53776124  0.90484200     0.23900
C476        C  0.60484381  0.51711507  0.93145469    -0.40300
C477        C  0.58301204  0.47310400  0.93289606     0.33000
C478        C  0.59407798  0.45039796  0.90804350     0.14700
F479        F  0.68134682  0.53523444  0.85419151    -0.12600
F480        F  0.55134970  0.45183035  0.95883772    -0.13200
F481        F  0.65975963  0.58001966  0.90199693    -0.15400
F482        F  0.57254531  0.40805455  0.91003504    -0.14000
F483        F  0.70404892  0.47083700  0.88462756    -0.14000
F484        F  0.58587261  0.37272360  0.77260953    -0.15400
C485        C  0.18322927  0.57359406  0.68438635     0.14600
C486        C  0.18776007  0.55329585  0.65160730     0.01600
C487        C  0.22674628  0.55687604  0.64404548     0.16600
C488        C  0.26096656  0.58063619  0.66916077     0.26000
C489        C  0.25649429  0.60103648  0.70209573    -0.40300
C490        C  0.21739421  0.59764762  0.70922155     0.33000
C491        C  0.15188408  0.52941286  0.62478863     0.01700
F492        F  0.23184375  0.53826110  0.61179591    -0.12700
F493        F  0.21268058  0.61926225  0.73904280    -0.13200
C494        C  0.13701753  0.55026566  0.60171212     0.16600
C495        C  0.10232266  0.52777029  0.57693211     0.26000
C496        C  0.08198076  0.48381424  0.57464467    -0.40300
C497        C  0.09698368  0.46306736  0.59825549     0.33000
C498        C  0.13170718  0.48578369  0.62303556     0.14700
F499        F  0.15670754  0.59260636  0.60267815    -0.12600
F500        F  0.07811103  0.42079805  0.59759117    -0.13200
F501        F  0.08947225  0.54930596  0.55454815    -0.15400
F502        F  0.14543141  0.46519316  0.64571430    -0.14000
F503        F  0.14571936  0.57051254  0.69197022    -0.14000
F504        F  0.29846059  0.58386154  0.66121538    -0.15400
C505        C  0.15117235  0.47867667  0.88397141     0.14600
C506        C  0.15331185  0.51007036  0.85952839     0.01600
C507        C  0.11853717  0.51551662  0.85703605     0.16600
C508        C  0.08418850  0.49338825  0.88144849     0.26000
C509        C  0.08331959  0.46448495  0.90846413    -0.40300
C510        C  0.11610240  0.45569614  0.90813176     0.33000
C511        C  0.19230134  0.53983377  0.83876209     0.01700
F512        F  0.11859319  0.54375525  0.83189636    -0.12700
F513        F  0.11557723  0.42700841  0.93291835    -0.13200
C514        C  0.21132510  0.52613960  0.81152928     0.16600
C515        C  0.24469289  0.55518686  0.78845030     0.26000
C516        C  0.25913488  0.59806750  0.79232632    -0.40300
C517        C  0.24157372  0.61174939  0.82089297     0.33000
C518        C  0.20874961  0.58297860  0.84413177     0.14700
F519        F  0.19670664  0.48478104  0.80627679    -0.12600
F520        F  0.25488227  0.65297746  0.82500259    -0.13200
F521        F  0.26289926  0.54154221  0.76239646    -0.15400
F522        F  0.19220694  0.59726805  0.87137819    -0.14000
F523        F  0.18393600  0.47202649  0.88628379    -0.14000
F524        F  0.05225453  0.50135402  0.87940483    -0.15400
C525        C  0.42987732  0.61686120  0.67986292     0.14600
C526        C  0.46445474  0.65342836  0.66493603     0.01600
C527        C  0.46770262  0.69219387  0.67162336     0.16600
C528        C  0.43631514  0.69431449  0.69216367     0.26000
C529        C  0.40188589  0.65785809  0.70682565    -0.40300
C530        C  0.39885204  0.61917349  0.70100382     0.33000
C531        C  0.49531421  0.65067900  0.63988137     0.01700
F532        F  0.50123494  0.72788878  0.65812158    -0.12700
F533        F  0.36551265  0.58374507  0.71520335    -0.13200
C534        C  0.50039779  0.66418453  0.60070740     0.16600
C535        C  0.52507124  0.65642995  0.57514964     0.26000
C536        C  0.54417609  0.63450384  0.58835348    -0.40300
C537        C  0.54131254  0.62327320  0.62796575     0.33000
C538        C  0.51718833  0.63159092  0.65377702     0.14700
F539        F  0.47873614  0.68176773  0.58642228    -0.12600
F540        F  0.55976342  0.60199127  0.64091975    -0.13200
F541        F  0.52729128  0.66700140  0.53672977    -0.15400
F542        F  0.51348420  0.61924347  0.69177131    -0.14000
F543        F  0.42547258  0.57889093  0.67279084    -0.14000
F544        F  0.43961999  0.73194181  0.69801776    -0.15400
C545        C  0.46551426  0.68259076  0.82685227     0.14600
C546        C  0.45034810  0.64457469  0.84671821     0.01600
C547        C  0.40879581  0.61195562  0.83982415     0.16600
C548        C  0.38256248  0.61761300  0.81440885     0.26000
C549        C  0.39763578  0.65552918  0.79482867    -0.40300
C550        C  0.43931082  0.68791566  0.80079678     0.33000
C551        C  0.47692846  0.63876654  0.87551975     0.01700
F552        F  0.39362258  0.57448699  0.85770029    -0.12700
F553        F  0.45409817  0.72504506  0.78242550    -0.13200
C554        C  0.46184289  0.62547964  0.91370242     0.16600
C555        C  0.48388711  0.61478803  0.93967601     0.26000
C556        C  0.52214293  0.61843475  0.92848386    -0.40300
C557        C  0.53878400  0.63424365  0.89125228     0.33000
C558        C  0.51599650  0.64387874  0.86466029     0.14700
F559        F  0.42527140  0.62221209  0.92566118    -0.12600
F560        F  0.57572721  0.63804198  0.87988475    -0.13200
F561        F  0.46768855  0.60060755  0.97590743    -0.15400
F562        F  0.53101315  0.65617349  0.82777092    -0.14000
F563        F  0.50509721  0.71492936  0.83371650    -0.14000
F564        F  0.34240152  0.58594094  0.80871743    -0.15400
C565        C  0.39217680  0.81046976  0.67828149     0.14600
C566        C  0.36293516  0.80448882  0.64880930     0.01600
C567        C  0.32581737  0.76559299  0.64480344     0.16600
C568        C  0.31793719  0.73298955  0.67016526     0.26000
C569        C  0.34675244  0.73922688  0.70026455    -0.40300
C570        C  0.38407087  0.77811366  0.70398976     0.33000
C571        C  0.37233355  0.83830701  0.62101235     0.01700
F572        F  0.29772423  0.75905770  0.61583234    -0.12700
F573        F  0.41323541  0.78433107  0.73170336    -0.13200
C574        C  0.39975150  0.84569552  0.58972995     0.16600
C575        C  0.41049841  0.87882794  0.56423445     0.26000
C576        C  0.39368988  0.90504045  0.56943602    -0.40300
C577        C  0.36539595  0.89696267  0.60035771     0.33000
C578        C  0.35498392  0.86387905  0.62614089     0.14700
F579        F  0.41626343  0.82082207  0.58403856    -0.12600
F580        F  0.34927639  0.92206927  0.60661153    -0.13200
F581        F  0.43717112  0.88505704  0.53419454    -0.15400
F582        F  0.32885808  0.85738730  0.65671057    -0.14000
F583        F  0.42883324  0.84752388  0.68172681    -0.14000
F584        F  0.28206260  0.69541110  0.66555168    -0.15400
C585        C  0.32936184  0.79665063  0.80478835     0.14600
C586        C  0.36004504  0.81211884  0.83461353     0.01600
C587        C  0.38204328  0.79156917  0.84294748     0.16600
C588        C  0.37433527  0.75658953  0.82111456     0.26000
C589        C  0.34431094  0.74139508  0.79061617    -0.40300
C590        C  0.32124674  0.76122961  0.78307565     0.33000
C591        C  0.36961271  0.84966356  0.85748778     0.01700
F592        F  0.41109195  0.80549247  0.87238737    -0.12700
F593        F  0.29058576  0.74607900  0.75513022    -0.13200
C594        C  0.34036796  0.84850923  0.88440632     0.16600
C595        C  0.35194596  0.88197279  0.91036448     0.26000
C596        C  0.39305177  0.91684264  0.90976150    -0.40300
C597        C  0.42147227  0.91876252  0.88127481     0.33000
C598        C  0.40980075  0.88539067  0.85534692     0.14700
F599        F  0.30158847  0.81386959  0.88725122    -0.12600
F600        F  0.46089698  0.95257356  0.87911806    -0.13200
F601        F  0.32399089  0.87888384  0.93789799    -0.15400
F602        F  0.43819963  0.88723470  0.82897351    -0.14000
F603        F  0.30783199  0.81623987  0.79638638    -0.14000
F604        F  0.39720869  0.73836624  0.82918422    -0.15400
loop_ 
_geom_bond_atom_site_label_1 
_geom_bond_atom_site_label_2 
_geom_bond_distance 
_geom_bond_site_symmetry_2 
_ccdc_geom_bond_type 
C1            H2   1.116       .  S
C1            C7   1.531       .  S
C1            C6   1.534       .  S
C1            C5   1.536       .  S
C3            H4   1.116       .  S
C3            C9   1.526       .  S
C3            C8   1.529       .  S
C3           C10   1.538       .  S
C5            C8   1.372       .  D
C5          C187   1.479       .  S
C6            C9   1.368       .  D
C6          C227   1.468       .  S
C7           C10   1.374       .  D
C7          C267   1.480       .  S
C8          C214   1.477       .  S
C9          C247   1.473       .  S
C10         C287   1.479       .  S
C11          H12   1.116       .  S
C11          C17   1.527       .  S
C11          C16   1.530       .  S
C11          C15   1.537       .  S
C13          H14   1.116       .  S
C13          C19   1.532       .  S
C13          C18   1.531       .  S
C13          C20   1.531       .  S
C15          C18   1.375       .  D
C15          C67   1.480       .  S
C16          C19   1.369       .  D
C16         C127   1.475       .  S
C17          C20   1.370       .  D
C17         C154   1.474       .  S
C18          C94   1.478       .  S
C19         C114   1.468       .  S
C20         C167   1.469       .  S
O21         Ni29   1.916       .  S
O21          C31   1.279       .  A
O22        Ni331   1.916   1_454  S
O22          C32   1.281       .  A
O23        Ni331   1.927   1_554  S
O23          C33   1.283       .  A
O24         Ni29   1.931   1_455  S
O24          C34   1.284       .  A
O25         Ni30   1.890   1_455  S
O25          C34   1.277       .  A
O26        Ni332   1.900   1_554  S
O26          C33   1.277       .  A
O27        Ni332   1.916   1_454  S
O27          C32   1.282       .  A
O28         Ni30   1.903       .  S
O28          C31   1.279       .  A
Ni29        O324   1.912   1_655  S
Ni29        O325   1.927       .  S
Ni29        Ni30   2.390       .  S
Ni30        O328   1.897       .  S
Ni30        O329   1.910   1_655  S
C31         C107   1.457       .  S
C32         C194   1.487       .  S
C33         C134   1.467       .  S
C34         C207   1.474       .  S
O35        Ni345   1.901       .  S
O35          C45   1.278       .  A
O36         Ni43   1.903       .  S
O36          C46   1.278       .  A
O37         Ni43   1.903       .  S
O37          C47   1.279       .  A
O38        Ni345   1.897       .  S
O38          C48   1.277       .  A
O39        Ni346   1.922       .  S
O39          C48   1.280       .  A
O40         Ni44   1.913       .  S
O40          C47   1.281       .  A
O41         Ni44   1.922       .  S
O41          C46   1.281       .  A
O42        Ni346   1.924       .  S
O42          C45   1.282       .  A
Ni43        O337   1.900       .  S
Ni43        O340   1.894       .  S
Ni43        Ni44   2.392       .  S
Ni44        O341   1.919       .  S
Ni44        O344   1.923       .  S
C45         C147   1.469       .  S
C46         C254   1.465       .  S
C47         C174   1.479       .  S
C48         C234   1.455       .  S
O49         Ni57   1.910   1_554  S
O49          C59   1.281       .  A
O50        Ni359   1.907   1_565  S
O50          C60   1.280       .  A
O51        Ni359   1.896       .  S
O51          C61   1.278       .  A
O52         Ni57   1.897   1_564  S
O52          C62   1.277       .  A
O53         Ni58   1.933   1_554  S
O53          C62   1.285       .  A
O54        Ni360   1.935   1_545  S
O54          C61   1.284       .  A
O55        Ni360   1.915       .  S
O55          C60   1.281       .  A
O56         Ni58   1.915   1_544  S
O56          C59   1.280       .  A
Ni57        O352   1.908   1_545  S
Ni57        O353   1.894       .  S
Ni57        Ni58   2.387   1_545  S
Ni58        O356   1.935   1_565  S
Ni58        O357   1.916       .  S
C59          C74   1.475       .  S
C60         C294   1.475       .  S
C61          C87   1.481       .  S
C62         C274   1.479       .  S
C63          C64   1.405       .  A
C63          C68   1.400       .  A
C63          F81   1.358       .  S
C64          C69   1.477       .  S
C64          C65   1.405       .  A
C65          C66   1.390       .  A
C65          F70   1.358       .  S
C66          C67   1.403       .  A
C66          F82   1.357       .  S
C67          C68   1.409       .  A
C68          F71   1.358       .  S
C69          C72   1.404       .  A
C69          C76   1.405       .  A
C72          C73   1.400       .  A
C72          F77   1.358       .  S
C73          C74   1.409       .  A
C73          F79   1.358       .  S
C74          C75   1.406       .  A
C75          C76   1.393       .  A
C75          F78   1.358       .  S
C76          F80   1.359       .  S
C83          C84   1.404       .  A
C83          C88   1.406       .  A
C83         F101   1.358       .  S
C84          C89   1.470       .  S
C84          C85   1.398       .  A
C85          C86   1.389       .  A
C85          F90   1.359       .  S
C86          C87   1.410       .  A
C86         F102   1.358       .  S
C87          C88   1.411       .  A
C88          F91   1.357       .  S
C89          C92   1.402       .  A
C89          C96   1.404       .  A
C92          C93   1.398       .  A
C92          F97   1.358       .  S
C93          C94   1.406       .  A
C93          F99   1.357       .  S
C94          C95   1.404       .  A
C95          C96   1.395       .  A
C95          F98   1.358       .  S
C96         F100   1.358       .  S
C103        C104   1.407       .  A
C103        C108   1.395       .  A
C103        F121   1.358       .  S
C104        C109   1.478       .  S
C104        C105   1.408       .  A
C105        C106   1.397       .  A
C105        F110   1.358       .  S
C106        C107   1.401       .  A
C106        F122   1.358       .  S
C107        C108   1.400       .  A
C108        F111   1.358       .  S
C109        C112   1.406       .  A
C109        C116   1.409       .  A
C112        C113   1.398       .  A
C112        F117   1.358       .  S
C113        C114   1.402       .  A
C113        F119   1.357       .  S
C114        C115   1.399       .  A
C115        C116   1.394       .  A
C115        F118   1.358       .  S
C116        F120   1.358       .  S
C123        C124   1.406       .  A
C123        C128   1.394       .  A
C123        F141   1.358       .  S
C124        C129   1.479       .  S
C124        C125   1.406       .  A
C125        C126   1.400       .  A
C125        F130   1.358       .  S
C126        C127   1.405       .  A
C126        F142   1.357       .  S
C127        C128   1.401       .  A
C128        F131   1.357       .  S
C129        C132   1.407       .  A
C129        C136   1.405       .  A
C132        C133   1.400       .  A
C132        F137   1.357       .  S
C133        C134   1.402       .  A
C133        F139   1.357       .  S
C134        C135   1.405       .  A
C135        C136   1.395       .  A
C135        F138   1.359       .  S
C136        F140   1.359       .  S
C143        C144   1.404       .  A
C143        C148   1.394       .  A
C143        F161   1.358       .  S
C144        C149   1.476       .  S
C144        C145   1.406       .  A
C145        C146   1.400       .  A
C145        F150   1.358       .  S
C146        C147   1.405       .  A
C146        F162   1.358       .  S
C147        C148   1.405       .  A
C148        F151   1.358       .  S
C149        C152   1.406       .  A
C149        C156   1.406       .  A
C152        C153   1.392       .  A
C152        F157   1.358       .  S
C153        C154   1.401       .  A
C153        F159   1.358       .  S
C154        C155   1.405       .  A
C155        C156   1.401       .  A
C155        F158   1.358       .  S
C156        F160   1.358       .  S
C163        C164   1.406       .  A
C163        C168   1.398       .  A
C163        F181   1.358       .  S
C164        C169   1.471       .  S
C164        C165   1.403       .  A
C165        C166   1.390       .  A
C165        F170   1.358       .  S
C166        C167   1.403       .  A
C166        F182   1.357       .  S
C167        C168   1.402       .  A
C168        F171   1.358       .  S
C169        C172   1.402       .  A
C169        C176   1.402       .  A
C172        C173   1.396       .  A
C172        F177   1.358       .  S
C173        C174   1.411       .  A
C173        F179   1.358       .  S
C174        C175   1.411       .  A
C175        C176   1.392       .  A
C175        F178   1.358       .  S
C176        F180   1.359       .  S
C183        C184   1.405       .  A
C183        C188   1.395       .  A
C183        F201   1.358       .  S
C184        C189   1.482       .  S
C184        C185   1.408       .  A
C185        C186   1.401       .  A
C185        F190   1.358       .  S
C186        C187   1.404       .  A
C186        F202   1.358       .  S
C187        C188   1.404       .  A
C188        F191   1.358       .  S
C189        C192   1.405       .  A
C189        C196   1.403       .  A
C192        C193   1.398       .  A
C192        F197   1.358       .  S
C193        C194   1.411       .  A
C193        F199   1.358       .  S
C194        C195   1.412       .  A
C195        C196   1.399       .  A
C195        F198   1.358       .  S
C196        F200   1.358       .  S
C203        C204   1.408       .  A
C203        C208   1.405       .  A
C203        F221   1.358       .  S
C204        C209   1.479       .  S
C204        C205   1.402       .  A
C205        C206   1.388       .  A
C205        F210   1.359       .  S
C206        C207   1.407       .  A
C206        F222   1.359       .  S
C207        C208   1.408       .  A
C208        F211   1.358       .  S
C209        C212   1.405       .  A
C209        C216   1.408       .  A
C212        C213   1.401       .  A
C212        F217   1.357       .  S
C213        C214   1.407       .  A
C213        F219   1.358       .  S
C214        C215   1.400       .  A
C215        C216   1.392       .  A
C215        F218   1.358       .  S
C216        F220   1.358       .  S
C223        C224   1.409       .  A
C223        C228   1.397       .  A
C223        F241   1.358       .  S
C224        C229   1.474       .  S
C224        C225   1.403       .  A
C225        C226   1.392       .  A
C225        F230   1.358       .  S
C226        C227   1.401       .  A
C226        F242   1.355       .  S
C227        C228   1.401       .  A
C228        F231   1.358       .  S
C229        C232   1.407       .  A
C229        C236   1.405       .  A
C232        C233   1.393       .  A
C232        F237   1.358       .  S
C233        C234   1.400       .  A
C233        F239   1.358       .  S
C234        C235   1.402       .  A
C235        C236   1.397       .  A
C235        F238   1.358       .  S
C236        F240   1.358       .  S
C243        C244   1.407       .  A
C243        C248   1.399       .  A
C243        F261   1.358       .  S
C244        C249   1.480       .  S
C244        C245   1.407       .  A
C245        C246   1.392       .  A
C245        F250   1.358       .  S
C246        C247   1.400       .  A
C246        F262   1.357       .  S
C247        C248   1.404       .  A
C248        F251   1.357       .  S
C249        C252   1.406       .  A
C249        C256   1.409       .  A
C252        C253   1.392       .  A
C252        F257   1.358       .  S
C253        C254   1.403       .  A
C253        F259   1.358       .  S
C254        C255   1.402       .  A
C255        C256   1.400       .  A
C255        F258   1.358       .  S
C256        F260   1.358       .  S
C263        C264   1.403       .  A
C263        C268   1.397       .  A
C263        F281   1.358       .  S
C264        C269   1.473       .  S
C264        C265   1.403       .  A
C265        C266   1.398       .  A
C265        F270   1.358       .  S
C266        C267   1.404       .  A
C266        F282   1.358       .  S
C267        C268   1.406       .  A
C268        F271   1.358       .  S
C269        C272   1.400       .  A
C269        C276   1.404       .  A
C272        C273   1.395       .  A
C272        F277   1.358       .  S
C273        C274   1.411       .  A
C273        F279   1.358       .  S
C274        C275   1.407       .  A
C275        C276   1.402       .  A
C275        F278   1.357       .  S
C276        F280   1.358       .  S
C283        C284   1.404       .  A
C283        C288   1.399       .  A
C283        F301   1.358       .  S
C284        C289   1.474       .  S
C284        C285   1.404       .  A
C285        C286   1.392       .  A
C285        F290   1.358       .  S
C286        C287   1.404       .  A
C286        F302   1.357       .  S
C287        C288   1.408       .  A
C288        F291   1.357       .  S
C289        C292   1.404       .  A
C289        C296   1.404       .  A
C292        C293   1.397       .  A
C292        F297   1.358       .  S
C293        C294   1.408       .  A
C293        F299   1.358       .  S
C294        C295   1.407       .  A
C295        C296   1.394       .  A
C295        F298   1.358       .  S
C296        F300   1.358       .  S
C303        H304   1.116       .  S
C303        C309   1.530       .  S
C303        C308   1.532       .  S
C303        C307   1.535       .  S
C305        H306   1.116       .  S
C305        C311   1.523       .  S
C305        C310   1.529       .  S
C305        C312   1.539       .  S
C307        C310   1.374       .  D
C307        C489   1.481       .  S
C308        C311   1.364       .  D
C308        C529   1.463       .  S
C309        C312   1.376       .  D
C309        C569   1.480       .  S
C310        C516   1.476       .  S
C311        C549   1.471       .  S
C312        C589   1.481       .  S
C313        H314   1.116       .  S
C313        C319   1.527       .  S
C313        C318   1.527       .  S
C313        C317   1.536       .  S
C315        H316   1.116       .  S
C315        C321   1.534       .  S
C315        C320   1.533       .  S
C315        C322   1.532       .  S
C317        C320   1.376       .  D
C317        C369   1.483       .  S
C318        C321   1.368       .  D
C318        C429   1.474       .  S
C319        C322   1.370       .  D
C319        C456   1.472       .  S
C320        C396   1.476       .  S
C321        C416   1.470       .  S
C322        C469   1.473       .  S
O323       Ni331   1.918       .  S
O323        C333   1.279       .  A
O324        C334   1.281       .  A
O325        C335   1.283       .  A
O326       Ni331   1.930   1_455  S
O326        C336   1.284       .  A
O327       Ni332   1.893   1_455  S
O327        C336   1.277       .  A
O328        C335   1.277       .  A
O329        C334   1.281       .  A
O330       Ni332   1.906       .  S
O330        C333   1.279       .  A
Ni331      Ni332   2.389       .  S
C333        C409   1.460       .  S
C334        C496   1.482       .  S
C335        C436   1.466       .  S
C336        C509   1.477       .  S
O337        C347   1.278       .  A
O338       Ni345   1.901   1_556  S
O338        C348   1.278       .  A
O339       Ni345   1.906   1_556  S
O339        C349   1.280       .  A
O340        C350   1.277       .  A
O341        C350   1.280       .  A
O342       Ni346   1.918   1_556  S
O342        C349   1.282       .  A
O343       Ni346   1.926   1_556  S
O343        C348   1.282       .  A
O344        C347   1.282       .  A
Ni345      Ni346   2.392       .  S
C347        C449   1.466       .  S
C348        C556   1.469       .  S
C349        C476   1.480       .  S
C350        C536   1.453       .  S
O351       Ni359   1.909       .  S
O351        C361   1.281       .  A
O352        C362   1.280       .  A
O353        C363   1.277       .  A
O354       Ni359   1.898   1_565  S
O354        C364   1.277       .  A
O355       Ni360   1.934       .  S
O355        C364   1.285       .  A
O356        C363   1.284       .  A
O357        C362   1.281       .  A
O358       Ni360   1.916   1_545  S
O358        C361   1.280       .  A
Ni359      Ni360   2.387   1_545  S
C361        C376   1.475       .  S
C362        C596   1.473       .  S
C363        C389   1.482       .  S
C364        C576   1.479       .  S
C365        C366   1.405       .  A
C365        C370   1.401       .  A
C365        F383   1.357       .  S
C366        C371   1.477       .  S
C366        C367   1.404       .  A
C367        C368   1.390       .  A
C367        F372   1.358       .  S
C368        C369   1.404       .  A
C368        F384   1.356       .  S
C369        C370   1.409       .  A
C370        F373   1.357       .  S
C371        C374   1.405       .  A
C371        C378   1.405       .  A
C374        C375   1.400       .  A
C374        F379   1.358       .  S
C375        C376   1.409       .  A
C375        F381   1.358       .  S
C376        C377   1.405       .  A
C377        C378   1.393       .  A
C377        F380   1.358       .  S
C378        F382   1.359       .  S
C385        C386   1.404       .  A
C385        C390   1.406       .  A
C385        F403   1.358       .  S
C386        C391   1.470       .  S
C386        C387   1.398       .  A
C387        C388   1.388       .  A
C387        F392   1.359       .  S
C388        C389   1.411       .  A
C388        F404   1.358       .  S
C389        C390   1.411       .  A
C390        F393   1.357       .  S
C391        C394   1.402       .  A
C391        C398   1.404       .  A
C394        C395   1.398       .  A
C394        F399   1.358       .  S
C395        C396   1.406       .  A
C395        F401   1.356       .  S
C396        C397   1.403       .  A
C397        C398   1.393       .  A
C397        F400   1.357       .  S
C398        F402   1.358       .  S
C405        C406   1.407       .  A
C405        C410   1.395       .  A
C405        F423   1.358       .  S
C406        C411   1.480       .  S
C406        C407   1.408       .  A
C407        C408   1.398       .  A
C407        F412   1.358       .  S
C408        C409   1.402       .  A
C408        F424   1.358       .  S
C409        C410   1.400       .  A
C410        F413   1.358       .  S
C411        C414   1.407       .  A
C411        C418   1.409       .  A
C414        C415   1.400       .  A
C414        F419   1.358       .  S
C415        C416   1.403       .  A
C415        F421   1.358       .  S
C416        C417   1.398       .  A
C417        C418   1.393       .  A
C417        F420   1.358       .  S
C418        F422   1.358       .  S
C425        C426   1.405       .  A
C425        C430   1.393       .  A
C425        F443   1.358       .  S
C426        C431   1.476       .  S
C426        C427   1.406       .  A
C427        C428   1.399       .  A
C427        F432   1.358       .  S
C428        C429   1.403       .  A
C428        F444   1.357       .  S
C429        C430   1.402       .  A
C430        F433   1.356       .  S
C431        C434   1.406       .  A
C431        C438   1.405       .  A
C434        C435   1.398       .  A
C434        F439   1.357       .  S
C435        C436   1.402       .  A
C435        F441   1.357       .  S
C436        C437   1.406       .  A
C437        C438   1.394       .  A
C437        F440   1.359       .  S
C438        F442   1.359       .  S
C445        C446   1.403       .  A
C445        C450   1.392       .  A
C445        F463   1.358       .  S
C446        C451   1.473       .  S
C446        C447   1.406       .  A
C447        C448   1.401       .  A
C447        F452   1.358       .  S
C448        C449   1.405       .  A
C448        F464   1.358       .  S
C449        C450   1.404       .  A
C450        F453   1.358       .  S
C451        C454   1.405       .  A
C451        C458   1.404       .  A
C454        C455   1.391       .  A
C454        F459   1.358       .  S
C455        C456   1.400       .  A
C455        F461   1.358       .  S
C456        C457   1.405       .  A
C457        C458   1.401       .  A
C457        F460   1.358       .  S
C458        F462   1.357       .  S
C465        C466   1.405       .  A
C465        C470   1.399       .  A
C465        F483   1.358       .  S
C466        C471   1.472       .  S
C466        C467   1.403       .  A
C467        C468   1.392       .  A
C467        F472   1.358       .  S
C468        C469   1.403       .  A
C468        F484   1.357       .  S
C469        C470   1.403       .  A
C470        F473   1.357       .  S
C471        C474   1.402       .  A
C471        C478   1.401       .  A
C474        C475   1.399       .  A
C474        F479   1.358       .  S
C475        C476   1.410       .  A
C475        F481   1.358       .  S
C476        C477   1.411       .  A
C477        C478   1.394       .  A
C477        F480   1.358       .  S
C478        F482   1.358       .  S
C485        C486   1.401       .  A
C485        C490   1.394       .  A
C485        F503   1.358       .  S
C486        C491   1.470       .  S
C486        C487   1.403       .  A
C487        C488   1.399       .  A
C487        F492   1.358       .  S
C488        C489   1.406       .  A
C488        F504   1.358       .  S
C489        C490   1.408       .  A
C490        F493   1.357       .  S
C491        C494   1.401       .  A
C491        C498   1.400       .  A
C494        C495   1.395       .  A
C494        F499   1.358       .  S
C495        C496   1.412       .  A
C495        F501   1.358       .  S
C496        C497   1.412       .  A
C497        C498   1.397       .  A
C497        F500   1.358       .  S
C498        F502   1.358       .  S
C505        C506   1.408       .  A
C505        C510   1.404       .  A
C505        F523   1.357       .  S
C506        C511   1.480       .  S
C506        C507   1.403       .  A
C507        C508   1.388       .  A
C507        F512   1.359       .  S
C508        C509   1.408       .  A
C508        F524   1.359       .  S
C509        C510   1.408       .  A
C510        F513   1.358       .  S
C511        C514   1.406       .  A
C511        C518   1.408       .  A
C514        C515   1.401       .  A
C514        F519   1.357       .  S
C515        C516   1.407       .  A
C515        F521   1.358       .  S
C516        C517   1.400       .  A
C517        C518   1.391       .  A
C517        F520   1.358       .  S
C518        F522   1.358       .  S
C525        C526   1.408       .  A
C525        C530   1.395       .  A
C525        F543   1.358       .  S
C526        C531   1.471       .  S
C526        C527   1.403       .  A
C527        C528   1.393       .  A
C527        F532   1.358       .  S
C528        C529   1.400       .  A
C528        F544   1.356       .  S
C529        C530   1.400       .  A
C530        F533   1.358       .  S
C531        C534   1.406       .  A
C531        C538   1.405       .  A
C534        C535   1.393       .  A
C534        F539   1.358       .  S
C535        C536   1.400       .  A
C535        F541   1.358       .  S
C536        C537   1.401       .  A
C537        C538   1.395       .  A
C537        F540   1.358       .  S
C538        F542   1.358       .  S
C545        C546   1.407       .  A
C545        C550   1.399       .  A
C545        F563   1.358       .  S
C546        C551   1.479       .  S
C546        C547   1.408       .  A
C547        C548   1.393       .  A
C547        F552   1.358       .  S
C548        C549   1.399       .  A
C548        F564   1.357       .  S
C549        C550   1.403       .  A
C550        F553   1.357       .  S
C551        C554   1.404       .  A
C551        C558   1.408       .  A
C554        C555   1.391       .  A
C554        F559   1.358       .  S
C555        C556   1.405       .  A
C555        F561   1.358       .  S
C556        C557   1.404       .  A
C557        C558   1.402       .  A
C557        F560   1.357       .  S
C558        F562   1.358       .  S
C565        C566   1.404       .  A
C565        C570   1.397       .  A
C565        F583   1.358       .  S
C566        C571   1.473       .  S
C566        C567   1.403       .  A
C567        C568   1.399       .  A
C567        F572   1.358       .  S
C568        C569   1.406       .  A
C568        F584   1.358       .  S
C569        C570   1.405       .  A
C570        F573   1.357       .  S
C571        C574   1.400       .  A
C571        C578   1.404       .  A
C574        C575   1.395       .  A
C574        F579   1.358       .  S
C575        C576   1.410       .  A
C575        F581   1.358       .  S
C576        C577   1.407       .  A
C577        C578   1.402       .  A
C577        F580   1.357       .  S
C578        F582   1.357       .  S
C585        C586   1.403       .  A
C585        C590   1.399       .  A
C585        F603   1.358       .  S
C586        C591   1.471       .  S
C586        C587   1.402       .  A
C587        C588   1.392       .  A
C587        F592   1.358       .  S
C588        C589   1.405       .  A
C588        F604   1.356       .  S
C589        C590   1.409       .  A
C590        F593   1.357       .  S
C591        C594   1.403       .  A
C591        C598   1.403       .  A
C594        C595   1.398       .  A
C594        F599   1.358       .  S
C595        C596   1.408       .  A
C595        F601   1.358       .  S
C596        C597   1.406       .  A
C597        C598   1.395       .  A
C597        F600   1.358       .  S
C598        F602   1.358       .  S
