geometry optimzed in LAMMPS
_audit_creation_date              2020-12-01 
_audit_creation_method            'lammps2cif' 
_symmetry_space_group_name_H-M    'P1' 
_symmetry_Int_Tables_number       1 
_symmetry_cell_setting            triclinic 
loop_ 
_symmetry_equiv_pos_as_xyz 
  x,y,z 
_cell_length_a                    53.62109442 
_cell_length_b                    53.588908313649874 
_cell_length_c                    53.6714058420447 
_cell_angle_alpha                 89.96568723687433 
_cell_angle_beta                  90.06775951568211 
_cell_angle_gamma                 90.08312187194572 
loop_ 
_atom_site_label 
_atom_site_type_symbol 
_atom_site_fract_x 
_atom_site_fract_y 
_atom_site_fract_z 
_atom_site_charge 
N1          N  0.99976018  0.23412446  0.53584926    -0.36700
N2          N  0.03824866  0.23034909  0.49791632    -0.57300
N3          N  0.99941782  0.22932476  0.45995534    -0.36700
N4          N  0.96086456  0.23046042  0.49776478    -0.57300
C5          C  0.02013088  0.23093589  0.55044067     0.26800
C6          C  0.97944087  0.23049740  0.55037989     0.26800
C7          C  0.01961686  0.22257268  0.44645552     0.26800
C8          C  0.97899365  0.22324594  0.44638300     0.26800
C9          C  0.05312899  0.23468724  0.51779762     0.35500
C10         C  0.05289491  0.23186051  0.47749328     0.35500
C11         C  0.94656646  0.23578353  0.51780423     0.35500
C12         C  0.94643369  0.23415149  0.47739464     0.35500
C13         C  0.01261917  0.22573688  0.57462364    -0.22000
C14         C  0.98702948  0.22542461  0.57457800    -0.22000
C15         C  0.01196773  0.21201416  0.42414499    -0.22000
C16         C  0.98635315  0.21225426  0.42417920    -0.22000
C17         C  0.07748023  0.23850855  0.50999553    -0.23100
C18         C  0.07731466  0.23680663  0.48442667    -0.23100
C19         C  0.92281459  0.24249762  0.51017917    -0.23100
C20         C  0.92283738  0.24186794  0.48459581    -0.23100
C21         C  0.04532585  0.23364516  0.54294418    -0.18400
C22         C  0.95425367  0.23336840  0.54290868    -0.18400
C23         C  0.95401074  0.22921667  0.45258009    -0.18400
C24         C  0.04475878  0.22730374  0.45285240    -0.18400
H25         H  0.02431392  0.22269015  0.59078289     0.14500
H26         H  0.97539530  0.22222789  0.59072688     0.14500
H27         H  0.02364640  0.20503601  0.40927055     0.14500
H28         H  0.97449598  0.20544514  0.40932697     0.14500
H29         H  0.09370902  0.24188478  0.52152809     0.12800
H30         H  0.09339225  0.23856060  0.47237334     0.12800
H31         H  0.90711762  0.24748268  0.52179939     0.12800
H32         H  0.90714360  0.24644631  0.47278352     0.12800
H33         H  0.99968874  0.24092619  0.51777168     0.26000
H34         H  0.99961933  0.24047695  0.47577696     0.26000
O35         O  0.23314607  0.21081045  0.27469015    -0.88500
C36         C  0.23559011  0.28552090  0.29120402     0.87500
Mg37       Mg  0.26552206  0.18883027  0.26627971     1.58100
O38         O  0.21414048  0.27121906  0.23077525    -0.88200
O39         O  0.19756024  0.22060174  0.25732703    -0.75500
C40         C  0.32952198  0.25581857  0.18476797     0.92600
O41         O  0.27671235  0.24081044  0.30287583    -0.75400
O42         O  0.33232081  0.23960193  0.20181727    -0.82900
Mg43       Mg  0.23479849  0.23371013  0.30774454     1.58000
C44         C  0.24274502  0.31240059  0.17079854     0.92500
O45         O  0.19360790  0.22768803  0.31849373    -0.81100
H46         H  0.18995063  0.25438715  0.20790129    -0.06500
C47         C  0.28797377  0.28932207  0.23658070     0.87500
O48         O  0.25890346  0.19345486  0.22424421    -0.75600
O49         O  0.22548353  0.26563107  0.28542412    -0.88400
O50         O  0.23071662  0.31514239  0.19110652    -0.81200
C51         C  0.18277795  0.32440881  0.25598642     0.92600
C52         C  0.17254806  0.23824469  0.31514914     0.92500
Mg53       Mg  0.26786364  0.26139711  0.19176775     1.58000
O54         O  0.30942907  0.26830373  0.18240021    -0.81100
O55         O  0.22576265  0.25399188  0.19568688    -0.75400
O56         O  0.18022223  0.30388965  0.26779958    -0.81200
O57         O  0.24487553  0.20028401  0.33151614    -0.82900
O58         O  0.32016938  0.18963105  0.23031974    -0.81200
C59         C  0.20904032  0.25992606  0.21134675     0.86900
O60         O  0.27610262  0.22896905  0.21379305    -0.88400
O61         O  0.26871341  0.28367082  0.22520579    -0.88500
O62         O  0.30413053  0.27304628  0.24259223    -0.75500
Mg63       Mg  0.19206915  0.26268215  0.26313102     1.58000
O64         O  0.20070944  0.32787958  0.24080607    -0.82900
H65         H  0.21082950  0.18521714  0.25925095    -0.06600
O66         O  0.28777803  0.22234239  0.26825400    -0.88200
H67         H  0.31240867  0.23933047  0.29050577    -0.06500
H68         H  0.26018007  0.20640970  0.18873240    -0.06600
C69         C  0.29320697  0.23399927  0.28736795     0.86900
C70         C  0.21374154  0.20463192  0.26390031     0.87500
C71         C  0.26517253  0.20950631  0.20800717     0.87500
H72         H  0.29089907  0.30852605  0.24202420    -0.06600
O73         O  0.24159483  0.30157497  0.27488524    -0.75700
Mg74       Mg  0.30942606  0.23087318  0.23593227     1.58000
H75         H  0.24005006  0.28903287  0.31053748    -0.06600
C76         C  0.26008503  0.18234208  0.32836967     0.92500
O77         O  0.29954391  0.16525735  0.25683124    -0.82900
C78         C  0.31713392  0.16871807  0.24125873     0.92600
O79         O  0.16885281  0.25336396  0.29721374    -0.82900
Mg80       Mg  0.23565967  0.30524499  0.23265844     1.58200
O81         O  0.27094073  0.17861463  0.30756760    -0.81200
O82         O  0.25872693  0.29510816  0.16805547    -0.82900
O83         O  0.76302675  0.24941760  0.70370701    -0.88500
C84         C  0.75459942  0.19312009  0.75460094     0.87500
Mg85       Mg  0.78861455  0.27980851  0.71013212     1.58100
O86         O  0.70448325  0.23519602  0.75234902    -0.88200
O87         O  0.72330910  0.24252390  0.69684940    -0.75500
C88         C  0.76294218  0.31829429  0.82492619     0.92600
O89         O  0.80450123  0.22560194  0.74028477    -0.75400
O90         O  0.78139339  0.31576146  0.81021394    -0.82900
Mg91       Mg  0.77798912  0.21249574  0.70924819     1.58000
C92         C  0.67411059  0.26246602  0.81800485     0.92500
O93         O  0.75545552  0.19518308  0.67713105    -0.81100
H94         H  0.67744102  0.25209606  0.73305627    -0.06500
C95         C  0.75511579  0.24673570  0.80743918     0.87500
O96         O  0.75684495  0.30483141  0.72427432    -0.75600
O97         O  0.74890377  0.20522736  0.73583531    -0.88400
O98         O  0.67852197  0.24170748  0.80730094    -0.81200
C99         C  0.68381607  0.17309116  0.76468956     0.92600
C100        C  0.73543269  0.18262037  0.67445081     0.92500
Mg101      Mg  0.72094064  0.28845881  0.78897724     1.58000
O102        O  0.74233338  0.30695261  0.82123739    -0.81100
O103        O  0.69566051  0.27467205  0.75735935    -0.75400
O104        O  0.69555570  0.17653012  0.74432300    -0.81200
O105        O  0.80888089  0.21990622  0.68150650    -0.82900
O106        O  0.80583082  0.32237874  0.75637364    -0.81200
C107        C  0.69172777  0.25366419  0.74720250     0.86900
O108        O  0.75113595  0.29539406  0.76351234    -0.88400
O109        O  0.73598459  0.25167673  0.79558961    -0.88500
O110        O  0.77577908  0.25728535  0.80272937    -0.75500
Mg111      Mg  0.71140053  0.20996443  0.72235414     1.58000
O112        O  0.68532369  0.18845244  0.78267493    -0.82900
H113        H  0.74362379  0.26852431  0.67822572    -0.06600
O114        O  0.79527383  0.26473438  0.74689848    -0.88200
H115        H  0.82310169  0.24761209  0.76486103    -0.06500
H116        H  0.73189816  0.32245226  0.74655021    -0.06600
C117        C  0.80839166  0.24628832  0.75113063     0.86900
C118        C  0.74355988  0.25399196  0.69220642     0.87500
C119        C  0.74616687  0.30829715  0.74508767     0.87500
H120        H  0.75443730  0.23236011  0.82156514    -0.06600
O121        O  0.74391303  0.19668872  0.77541082    -0.75700
Mg122      Mg  0.78841032  0.28951017  0.77762895     1.58000
H123        H  0.76946289  0.17956383  0.75341732    -0.06600
C124        C  0.82402926  0.23805466  0.67918382     0.92500
O125        O  0.81535942  0.31226421  0.71726995    -0.82900
C126        C  0.81735825  0.32669912  0.73603919     0.92600
O127        O  0.71796507  0.18346423  0.69039422    -0.82900
Mg128      Mg  0.71135791  0.22098451  0.78921787     1.58200
O129        O  0.82110261  0.25843397  0.69116733    -0.81200
O130        O  0.68853221  0.28121429  0.81542272    -0.82900
N131        N  0.50174910  0.03466314  0.23914897    -0.36700
N132        N  0.53973914  0.99623960  0.24619218    -0.57300
N133        N  0.50108072  0.95962741  0.25623634    -0.36700
N134        N  0.46311604  0.99795193  0.25166330    -0.57300
C135        C  0.52259009  0.04888107  0.24137265     0.26800
C136        C  0.48186300  0.04970006  0.24324495     0.26800
C137        C  0.52152850  0.94574633  0.26126738     0.26800
C138        C  0.48095383  0.94654334  0.26401141     0.26800
C139        C  0.55412199  0.01497998  0.23737947     0.35500
C140        C  0.55374071  0.97528601  0.24520335     0.35500
C141        C  0.44844163  0.01730865  0.24491975     0.35500
C142        C  0.44803774  0.97773283  0.25329707     0.35500
C143        C  0.51573647  0.07326506  0.24673955    -0.22000
C144        C  0.49008897  0.07381340  0.24766442    -0.22000
C145        C  0.51426966  0.92343007  0.27219903    -0.22000
C146        C  0.48874357  0.92389052  0.27385222    -0.22000
C147        C  0.57732125  0.00579637  0.23057191    -0.23100
C148        C  0.57716549  0.98074075  0.23578519    -0.23100
C149        C  0.42390241  0.00940925  0.24262412    -0.23100
C150        C  0.42362542  0.98442701  0.24808738    -0.23100
C151        C  0.54754219  0.04058289  0.23796786    -0.18400
C152        C  0.45644875  0.04238772  0.24267546    -0.18400
C153        C  0.45572782  0.95348131  0.26039874    -0.18400
C154        C  0.54631012  0.95168159  0.25434902    -0.18400
H155        H  0.52788653  0.08908976  0.24987200     0.14500
H156        H  0.47879129  0.09006260  0.25158561     0.14500
H157        H  0.52599438  0.90796856  0.27772032     0.14500
H158        H  0.47733926  0.90881778  0.28091113     0.14500
H159        H  0.59296741  0.01614508  0.22310996     0.12800
H160        H  0.59266877  0.96810284  0.23321617     0.12800
H161        H  0.40776863  0.02052195  0.23778862     0.12800
H162        H  0.40723560  0.97262779  0.24835334     0.12800
H163        H  0.50097323  0.01629590  0.23293091     0.26000
H164        H  0.50065425  0.97558582  0.24532844     0.26000
O165        O  0.73246074  0.78937348  0.25703601    -0.88500
C166        C  0.74306538  0.74055663  0.31366379     0.87500
Mg167      Mg  0.70724226  0.78216005  0.22680026     1.58100
O168        O  0.79160980  0.74434382  0.26987240    -0.88200
O169        O  0.77139543  0.79971576  0.26311761    -0.75500
C170        C  0.73450654  0.66786412  0.18683162     0.92600
O171        O  0.69313226  0.75128664  0.28056318    -0.75400
O172        O  0.71572992  0.68233601  0.18862367    -0.82900
Mg173      Mg  0.71781130  0.78396539  0.29384427     1.58000
C174        C  0.82286955  0.67831093  0.24286600     0.92500
O175        O  0.73874779  0.81696800  0.31134741    -0.81100
H176        H  0.81711411  0.76427266  0.25137152    -0.06500
C177        C  0.74237689  0.68626142  0.25845756     0.87500
O178        O  0.73937946  0.76948100  0.20171239    -0.75600
O179        O  0.74816856  0.75953875  0.30162706    -0.88400
O180        O  0.81886097  0.68991899  0.26320583    -0.81200
C181        C  0.81452626  0.73301856  0.33160798     0.92600
C182        C  0.75905932  0.82198288  0.32267685     0.92500
Mg183      Mg  0.77530828  0.70540097  0.21688556     1.58000
O184        O  0.75465671  0.67204189  0.19885826    -0.81100
O185        O  0.79948675  0.73824506  0.23027752    -0.75400
O186        O  0.80335429  0.75375654  0.32818502    -0.81200
O187        O  0.68620093  0.81043476  0.28584026    -0.82900
O188        O  0.68993756  0.73622204  0.18300480    -0.81200
C189        C  0.80345841  0.74942208  0.25077772     0.86900
O190        O  0.74478952  0.72978142  0.20940272    -0.88400
O191        O  0.76064944  0.69952532  0.25381559    -0.88500
O192        O  0.72167263  0.68938663  0.24739654    -0.75500
Mg193      Mg  0.78505136  0.77480187  0.29521934     1.58000
O194        O  0.81191100  0.71482095  0.31657696    -0.82900
H195        H  0.74893098  0.81683849  0.23791473    -0.06600
O196        O  0.70116890  0.74489210  0.24104891    -0.88200
H197        H  0.67533089  0.72532163  0.25949206    -0.06500
H198        H  0.76414036  0.74779899  0.18314942    -0.06600
C199        C  0.68916600  0.74000542  0.26010070     0.86900
C200        C  0.75060576  0.80272468  0.25221937     0.87500
C201        C  0.74981388  0.74872247  0.19727439     0.87500
H202        H  0.74387414  0.67207382  0.27270866    -0.06600
O203        O  0.75351737  0.71980649  0.30922622    -0.75700
Mg204      Mg  0.70804853  0.71460132  0.21548033     1.58000
H205        H  0.72865024  0.74143786  0.32770195    -0.06600
C206        C  0.67109193  0.81202564  0.26766116     0.92500
O207        O  0.68136998  0.77521821  0.19442255    -0.82900
C208        C  0.67902995  0.75706006  0.17935927     0.92600
O209        O  0.77800051  0.80773002  0.32122782    -0.82900
Mg210      Mg  0.78574657  0.70715143  0.28425002     1.58200
O211        O  0.67391828  0.79927554  0.24782012    -0.81200
O212        O  0.80797105  0.67981407  0.22446370    -0.82900
N213        N  0.96370055  0.72610145  0.50272887    -0.36700
N214        N  0.00017782  0.72620081  0.46322057    -0.57300
N215        N  0.03940597  0.72883469  0.50087171    -0.36700
N216        N  0.00265079  0.72599914  0.54064442    -0.57300
C217        C  0.94924539  0.71970343  0.48301945     0.26800
C218        C  0.95068471  0.72056894  0.52357374     0.26800
C219        C  0.05304151  0.72447239  0.48012071     0.26800
C220        C  0.05427724  0.72411080  0.52074169     0.26800
C221        C  0.97935946  0.72954068  0.44932887     0.35500
C222        C  0.01980666  0.73113423  0.44821403     0.35500
C223        C  0.98276152  0.73123012  0.55519709     0.35500
C224        C  0.02318421  0.73129431  0.55431075     0.35500
C225        C  0.92688460  0.70982651  0.49153170    -0.22000
C226        C  0.92791028  0.71014661  0.51708094    -0.22000
C227        C  0.07682246  0.71684450  0.48693246    -0.22000
C228        C  0.07760367  0.71665221  0.51253164    -0.22000
C229        C  0.98579306  0.73620802  0.42523710    -0.23100
C230        C  0.01140305  0.73736991  0.42456527    -0.23100
C231        C  0.99072929  0.73971092  0.57828590    -0.23100
C232        C  0.01636026  0.73949075  0.57780551    -0.23100
C233        C  0.95479893  0.72484855  0.45775821    -0.18400
C234        C  0.95762609  0.72727138  0.54811699    -0.18400
C235        C  0.04799327  0.72820004  0.54601165    -0.18400
C236        C  0.04517975  0.72872414  0.45523412    -0.18400
H237        H  0.91111138  0.70354536  0.48064611     0.14500
H238        H  0.91319826  0.70408394  0.52948900     0.14500
H239        H  0.09216256  0.71214909  0.47472415     0.14500
H240        H  0.09365103  0.71188405  0.52381566     0.14500
H241        H  0.97339381  0.73960393  0.40968404     0.12800
H242        H  0.02252517  0.74205135  0.40841233     0.12800
H243        H  0.97935556  0.74548088  0.59387951     0.12800
H244        H  0.02856547  0.74505419  0.59289496     0.12800
H245        H  0.97975431  0.73698112  0.50208064     0.26000
H246        H  0.02208476  0.73745285  0.50141018     0.26000
O247        O  0.22354427  0.71714277  0.73649410    -0.88500
C248        C  0.20991649  0.79199369  0.73969225     0.87500
Mg249      Mg  0.23106701  0.69541202  0.76940774     1.58100
O250        O  0.26923015  0.77576371  0.71682759    -0.88200
O251        O  0.24084875  0.72634631  0.70072178    -0.75500
C252        C  0.31625149  0.76076409  0.83184452     0.92600
O253        O  0.19617602  0.74774674  0.78002059    -0.75400
O254        O  0.29827638  0.74572972  0.83586398    -0.82900
Mg255      Mg  0.19118232  0.74077275  0.73804261     1.58000
C256        C  0.33115553  0.81499695  0.74400247     0.92500
O257        O  0.18027300  0.73522224  0.69699047    -0.81100
H258        H  0.29074935  0.75791475  0.69222773    -0.06500
C259        C  0.26633634  0.79489006  0.79034185     0.87500
O260        O  0.27326600  0.69803778  0.76251999    -0.75600
O261        O  0.21442531  0.77210820  0.72898227    -0.88400
O262        O  0.31099461  0.81803736  0.73178988    -0.81200
C263        C  0.24512921  0.82997223  0.68662077     0.92600
C264        C  0.18362064  0.74559344  0.67587095     0.92500
Mg265      Mg  0.30908669  0.76444686  0.76962959     1.58000
O266        O  0.31965657  0.77076673  0.81056818    -0.81100
O267        O  0.30382027  0.75701756  0.72772577    -0.75400
O268        O  0.23192396  0.81027638  0.68444613    -0.81200
O269        O  0.16697469  0.70743595  0.74721564    -0.82900
O270        O  0.26715025  0.69592050  0.82431967    -0.81200
C271        C  0.28802846  0.76362936  0.71134674     0.86900
O272        O  0.28586075  0.73316080  0.77912577    -0.88400
O273        O  0.27676924  0.78806796  0.77101538    -0.88500
O274        O  0.25931019  0.77936327  0.80677483    -0.75500
Mg275      Mg  0.23615187  0.76867956  0.69530275     1.58000
O276        O  0.26141076  0.83238684  0.70369628    -0.82900
H277        H  0.23817627  0.69107185  0.71427246    -0.06600
O278        O  0.23095654  0.72944697  0.79089555    -0.88200
H279        H  0.20906693  0.74670492  0.81557609    -0.06500
H280        H  0.30948666  0.70901460  0.76344407    -0.06600
C281        C  0.21197141  0.74123314  0.79641388     0.86900
C282        C  0.23405545  0.71061022  0.71708522     0.87500
C283        C  0.29044277  0.71324356  0.76849036     0.87500
H284        H  0.26242670  0.81449610  0.79297967    -0.06600
O285        O  0.22713141  0.80727882  0.74534670    -0.75700
Mg286      Mg  0.26379182  0.73713180  0.81261466     1.58000
H287        H  0.19092453  0.79618585  0.74495622    -0.06600
C288        C  0.16907847  0.68987755  0.76304993     0.92500
O289        O  0.23982772  0.67229846  0.80371348    -0.82900
C290        C  0.25542609  0.67540229  0.82135705     0.92600
O291        O  0.20172975  0.76046679  0.67200501    -0.82900
Mg292      Mg  0.26934130  0.80965862  0.73820871     1.58200
O293        O  0.18903770  0.68666612  0.77564034    -0.81200
O294        O  0.33357990  0.79760945  0.75998145    -0.82900
N295        N  0.50118454  0.96418114  0.74005282    -0.36700
N296        N  0.46271509  0.00086656  0.74889105    -0.57300
N297        N  0.50121740  0.03819632  0.75785571    -0.36700
N298        N  0.53963138  0.00121399  0.74625675    -0.57300
C299        C  0.48063156  0.95204506  0.73188455     0.26800
C300        C  0.52116455  0.95219996  0.73049356     0.26800
C301        C  0.48069487  0.05281492  0.75581318     0.26800
C302        C  0.52144478  0.05293758  0.75433408     0.26800
C303        C  0.44903105  0.97971493  0.75072146     0.35500
C304        C  0.44909543  0.01917948  0.75952272     0.35500
C305        C  0.55409249  0.98056655  0.74598330     0.35500
C306        C  0.55409259  0.01995672  0.75486562     0.35500
C307        C  0.48761822  0.93242894  0.71655986    -0.22000
C308        C  0.51324785  0.93246701  0.71577139    -0.22000
C309        C  0.48802835  0.07718976  0.75104227    -0.22000
C310        C  0.51374042  0.07729261  0.75029461    -0.22000
C311        C  0.42670498  0.98457531  0.76274272    -0.23100
C312        C  0.42668413  0.00963358  0.76817937    -0.23100
C313        C  0.57787335  0.98622903  0.75442252    -0.23100
C314        C  0.57795660  0.01127476  0.75976953    -0.23100
C315        C  0.45609954  0.95650982  0.74039202    -0.18400
C316        C  0.54625329  0.95710892  0.73687179    -0.18400
C317        C  0.54661650  0.04515899  0.75623954    -0.18400
C318        C  0.45570532  0.04474584  0.75935583    -0.18400
H319        H  0.47552084  0.91901763  0.70751153     0.14500
H320        H  0.52477909  0.91913224  0.70597893     0.14500
H321        H  0.47615057  0.09330074  0.74852315     0.14500
H322        H  0.52542220  0.09348316  0.74719440     0.14500
H323        H  0.41189905  0.97153655  0.76703630     0.12800
H324        H  0.41183546  0.01972447  0.77735707     0.12800
H325        H  0.59363691  0.97379108  0.75627301     0.12800
H326        H  0.59383567  0.02189042  0.76634389     0.12800
H327        H  0.50164480  0.97734501  0.75428794     0.26000
H328        H  0.50153532  0.01974166  0.76385132     0.26000
N329        N  0.25627068  0.53664127  0.00144348    -0.36700
N330        N  0.24888350  0.49822003  0.03938637    -0.57300
N331        N  0.24507159  0.46086467  0.00044813    -0.36700
N332        N  0.24884031  0.49924132  0.96248056    -0.57300
C333        C  0.25297838  0.55105563  0.02191376     0.26800
C334        C  0.25364299  0.55153264  0.98120236     0.26800
C335        C  0.23834761  0.44729035  0.02059671     0.26800
C336        C  0.23774012  0.44794793  0.98008345     0.26800
C337        C  0.25556466  0.51752335  0.05415732     0.35500
C338        C  0.25073912  0.47738553  0.05351964     0.35500
C339        C  0.25594910  0.51878759  0.94823292     0.35500
C340        C  0.24997268  0.47881751  0.94772403     0.35500
C341        C  0.24851286  0.57547548  0.01452138    -0.22000
C342        C  0.24906043  0.57578971  0.98889001    -0.22000
C343        C  0.22664044  0.42550714  0.01298659    -0.22000
C344        C  0.22614428  0.42597528  0.98740342    -0.22000
C345        C  0.26153416  0.50885937  0.07780006    -0.23100
C346        C  0.25840264  0.48344558  0.07739779    -0.23100
C347        C  0.26139367  0.51076706  0.92428758    -0.23100
C348        C  0.25768896  0.48543996  0.92399050    -0.23100
C349        C  0.25495958  0.54299035  0.04706339    -0.18400
C350        C  0.25603872  0.54400255  0.95599886    -0.18400
C351        C  0.24302702  0.45446252  0.95511552    -0.18400
C352        C  0.24417636  0.45315449  0.04555600    -0.18400
H353        H  0.24520370  0.59149292  0.02632159     0.14500
H354        H  0.24628789  0.59205449  0.97725239     0.14500
H355        H  0.21946673  0.41066432  0.02464972     0.14500
H356        H  0.21848867  0.41154602  0.97553113     0.14500
H357        H  0.26751286  0.51969407  0.09373699     0.12800
H358        H  0.26128682  0.47089054  0.09293787     0.12800
H359        H  0.26737620  0.52200088  0.90862428     0.12800
H360        H  0.26030776  0.47334474  0.90807364     0.12800
H361        H  0.26232951  0.51826461  0.00130213     0.26000
H362        H  0.25686834  0.47624739  0.00055541     0.26000
N363        N  0.76077282  0.46339863  0.99691719    -0.36700
N364        N  0.75305109  0.50214569  0.95990952    -0.57300
N365        N  0.74982776  0.53948607  0.99972493    -0.36700
N366        N  0.75468185  0.50004613  0.03660519    -0.57300
C367        C  0.75770437  0.44937542  0.97617181     0.26800
C368        C  0.75751109  0.44813100  0.01673026     0.26800
C369        C  0.74223937  0.55316242  0.97986966     0.26800
C370        C  0.74305169  0.55197956  0.02061687     0.26800
C371        C  0.76049110  0.48333942  0.94480231     0.35500
C372        C  0.75451893  0.52333491  0.94629185     0.35500
C373        C  0.76062678  0.47991226  0.05056229     0.35500
C374        C  0.75505310  0.51990121  0.05211477     0.35500
C375        C  0.75282576  0.42486207  0.98287239    -0.22000
C376        C  0.75278550  0.42405287  0.00843859    -0.22000
C377        C  0.73073648  0.57475270  0.98831392    -0.22000
C378        C  0.73140856  0.57407566  0.01396864    -0.22000
C379        C  0.76664899  0.49254330  0.92152017    -0.23100
C380        C  0.76306812  0.51788254  0.92249984    -0.23100
C381        C  0.76472990  0.48698647  0.07506573    -0.23100
C382        C  0.76128067  0.51232908  0.07603718    -0.23100
C383        C  0.76050826  0.45780308  0.95136878    -0.18400
C384        C  0.75995973  0.45498639  0.04206707    -0.18400
C385        C  0.74772993  0.54436440  0.04550966    -0.18400
C386        C  0.74652042  0.54722526  0.95439937    -0.18400
H387        H  0.74975723  0.40911219  0.97062503     0.14500
H388        H  0.74979229  0.40749676  0.01959664     0.14500
H389        H  0.72270436  0.58955175  0.97719098     0.14500
H390        H  0.72403873  0.58821127  0.02632092     0.14500
H391        H  0.77306496  0.48208722  0.90552085     0.12800
H392        H  0.76629591  0.53078379  0.90732224     0.12800
H393        H  0.76916816  0.47507295  0.09074016     0.12800
H394        H  0.76260410  0.52376421  0.09260445     0.12800
H395        H  0.76734012  0.48161717  0.99749805     0.26000
H396        H  0.76114506  0.52381530  0.99900323     0.26000
O397        O  0.72645456  0.78919922  0.76783192    -0.88500
C398        C  0.70815182  0.71519836  0.76457618     0.87500
Mg399      Mg  0.73492719  0.81109719  0.73544942     1.58100
O400        O  0.76894407  0.72725588  0.78660631    -0.88200
O401        O  0.74405892  0.77873151  0.80310938    -0.75500
C402        C  0.81670441  0.74411416  0.67214769     0.92600
O403        O  0.69795995  0.75997756  0.72404204    -0.75400
O404        O  0.79993944  0.76060769  0.66924842    -0.82900
Mg405      Mg  0.69307277  0.76691880  0.76601413     1.58000
C406        C  0.82748155  0.68522545  0.75772722     0.92500
O407        O  0.68234368  0.77270664  0.80700117    -0.81100
H408        H  0.79204845  0.74267063  0.81149137    -0.06500
C409        C  0.76396668  0.71069471  0.71233555     0.87500
O410        O  0.77699773  0.80637200  0.74252509    -0.75600
O411        O  0.71457587  0.73464400  0.77510394    -0.88400
O412        O  0.80682833  0.68220180  0.76909910    -0.81200
C413        C  0.74133766  0.67455947  0.81664678     0.92600
C414        C  0.68559031  0.76241373  0.82817731     0.92500
Mg415      Mg  0.80861005  0.73774645  0.73376084     1.58000
O416        O  0.81874556  0.73162100  0.69228939    -0.81100
O417        O  0.80446616  0.74424544  0.77583049    -0.75400
O418        O  0.73131890  0.69588965  0.81982677    -0.81200
O419        O  0.67028139  0.80088548  0.75656490    -0.82900
O420        O  0.77161686  0.81089614  0.68133187    -0.81200
C421        C  0.78862491  0.73789330  0.79221892     0.86900
O422        O  0.78737906  0.77079624  0.72550722    -0.88400
O423        O  0.77467128  0.71606121  0.73201227    -0.88500
O424        O  0.75856919  0.72722883  0.69624224    -0.75500
Mg425      Mg  0.73699392  0.73683402  0.80852522     1.58000
O426        O  0.75600647  0.67021324  0.79847778    -0.82900
H427        H  0.74292656  0.81423178  0.79002176    -0.06600
O428        O  0.73310487  0.77772698  0.71326616    -0.88200
H429        H  0.71072734  0.76113032  0.68848092    -0.06500
H430        H  0.81244236  0.79312312  0.74182727    -0.06600
C431        C  0.71381430  0.76639075  0.70768342     0.86900
C432        C  0.73767773  0.79496591  0.78710665     0.87500
C433        C  0.79319560  0.79017584  0.73655901     0.87500
H434        H  0.75859151  0.69153879  0.70896678    -0.06600
O435        O  0.72394742  0.69889273  0.75806107    -0.75700
Mg436      Mg  0.76563628  0.76942794  0.69180069     1.58000
H437        H  0.68870058  0.71241310  0.76002356    -0.06600
C438        C  0.67327783  0.81835471  0.74080038     0.92500
O439        O  0.74422180  0.83441553  0.70164015    -0.82900
C440        C  0.75992737  0.83141873  0.68416379     0.92600
O441        O  0.70333412  0.74713020  0.83207392    -0.82900
Mg442      Mg  0.76584655  0.69372538  0.76428174     1.58200
O443        O  0.69366151  0.82130960  0.72897486    -0.81200
O444        O  0.83107337  0.70329876  0.74277195    -0.82900
N445        N  0.75602919  0.96450660  0.49936295    -0.36700
N446        N  0.74710834  0.00230253  0.46111042    -0.57300
N447        N  0.74373477  0.04014768  0.49972869    -0.36700
N448        N  0.74992115  0.00234099  0.53791327    -0.57300
C449        C  0.75213803  0.94985538  0.47916272     0.26800
C450        C  0.75356198  0.94990234  0.51983296     0.26800
C451        C  0.73689368  0.05364305  0.47956196     0.26800
C452        C  0.73731740  0.05347512  0.52013089     0.26800
C453        C  0.75371989  0.98292261  0.44642389     0.35500
C454        C  0.74801073  0.02296606  0.44661786     0.35500
C455        C  0.75664416  0.98290652  0.55246278     0.35500
C456        C  0.75019583  0.02278794  0.55264816     0.35500
C457        C  0.74736678  0.92560865  0.48693626    -0.22000
C458        C  0.74838534  0.92562369  0.51256242    -0.22000
C459        C  0.72619192  0.07588180  0.48717669    -0.22000
C460        C  0.72651724  0.07582736  0.51274412    -0.22000
C461        C  0.75865259  0.99135947  0.42247356    -0.23100
C462        C  0.75492975  0.01668426  0.42258694    -0.23100
C463        C  0.76101193  0.99100599  0.57661491    -0.23100
C464        C  0.75687028  0.01625568  0.57674529    -0.23100
C465        C  0.75388919  0.95754255  0.45390517    -0.18400
C466        C  0.75671147  0.95766951  0.54486219    -0.18400
C467        C  0.74263322  0.04689644  0.54512147    -0.18400
C468        C  0.74165628  0.04729837  0.45448930    -0.18400
H469        H  0.74355640  0.90951164  0.47537065     0.14500
H470        H  0.74556211  0.90957092  0.52448498     0.14500
H471        H  0.71921725  0.09081341  0.47551395     0.14500
H472        H  0.71993670  0.09086230  0.52443524     0.14500
H473        H  0.76432050  0.98044208  0.40650695     0.12800
H474        H  0.75705058  0.02904702  0.40677364     0.12800
H475        H  0.76611519  0.97981267  0.59261748     0.12800
H476        H  0.75812753  0.02828603  0.59288409     0.12800
H477        H  0.76253993  0.98275614  0.49910232     0.26000
H478        H  0.75490962  0.02437155  0.49948821     0.26000
O479        O  0.73100149  0.28554611  0.22137579    -0.88500
C480        C  0.73855912  0.21153374  0.20400158     0.97900
Mg481      Mg  0.76259632  0.30891335  0.23015145     1.58100
O482        O  0.71417073  0.22310064  0.26367789    -0.88200
O483        O  0.69577912  0.27304059  0.23782424    -0.75500
C484        C  0.82645021  0.24384798  0.31391532     0.92600
O485        O  0.77651474  0.25860071  0.19321133    -0.75400
O486        O  0.82947502  0.26008410  0.29683881    -0.82900
Mg487      Mg  0.73418993  0.26333402  0.18794665     1.58000
C488        C  0.74203364  0.18325510  0.32449880     0.92500
O489        O  0.69289478  0.26727253  0.17686964    -0.81100
H490        H  0.68786371  0.23794731  0.28542776    -0.06500
C491        C  0.78876455  0.20916525  0.26086618     0.87500
O492        O  0.75557450  0.30422088  0.27216149    -0.75600
O493        O  0.72673088  0.23049206  0.20953354    -0.88400
O494        O  0.73199766  0.17932634  0.30331281    -0.81200
C495        C  0.68675077  0.16906137  0.23721338     0.92600
C496        C  0.67251790  0.25524038  0.17937283     0.92500
Mg497      Mg  0.76513600  0.23610236  0.30480799     1.58000
O498        O  0.80627745  0.23143664  0.31609653    -0.81100
O499        O  0.72300230  0.24112360  0.29914881    -0.75400
O500        O  0.68375419  0.18892341  0.22445615    -0.81200
O501        O  0.74202571  0.29767010  0.16487385    -0.82900
O502        O  0.81688367  0.31037669  0.26711326    -0.81200
C503        C  0.70743154  0.23386220  0.28286052     0.86900
O504        O  0.77306591  0.26899949  0.28295808    -0.88400
O505        O  0.76888590  0.21381461  0.27149738    -0.88500
O506        O  0.80410627  0.22628155  0.25509516    -0.75500
Mg507      Mg  0.69267972  0.23074488  0.23082318     1.58000
O508        O  0.70432375  0.16680086  0.25298206    -0.82900
H509        H  0.70712421  0.30919559  0.23743217    -0.06600
O510        O  0.78597713  0.27627258  0.22872469    -0.88200
H511        H  0.81187085  0.26137708  0.20649818    -0.06500
H512        H  0.75624189  0.29120004  0.30768037    -0.06600
C513        C  0.79236893  0.26555441  0.20938982     0.86900
C514        C  0.71117565  0.29016618  0.23214213     0.87500
C515        C  0.76167015  0.28821892  0.28851968     0.87500
H516        H  0.79287981  0.19011267  0.25571139    -0.06600
O517        O  0.74495299  0.19566502  0.22036526    -0.75700
Mg518      Mg  0.80722520  0.26851716  0.26181432     1.58000
H519        H  0.74417486  0.20872386  0.18486841    -0.06600
C520        C  0.75686004  0.31590443  0.16817663     0.92500
O521        O  0.79619806  0.33343924  0.23944828    -0.82900
C522        C  0.81391379  0.33073066  0.25506755     0.92600
O523        O  0.66954738  0.23921525  0.19659806    -0.82900
Mg524      Mg  0.73767194  0.19061771  0.26228602     1.58200
O525        O  0.76811356  0.31935083  0.18885050    -0.81200
O526        O  0.75627703  0.20190114  0.32827677    -0.82900
N527        N  0.00293184  0.53803323  0.24197967    -0.36700
N528        N  0.96295725  0.50228244  0.24780241    -0.57300
N529        N  0.99967413  0.46245595  0.25467421    -0.36700
N530        N  0.03964450  0.49826855  0.24642024    -0.57300
C531        C  0.98309430  0.55202611  0.23511417     0.26800
C532        C  0.02368002  0.54991424  0.23398308     0.26800
C533        C  0.97848628  0.44905819  0.25156055     0.26800
C534        C  0.01916463  0.44684433  0.25106448     0.26800
C535        C  0.94971828  0.52362738  0.24993747     0.35500
C536        C  0.94794540  0.48371538  0.25588881     0.35500
C537        C  0.05518279  0.51818821  0.24670458     0.35500
C538        C  0.05349743  0.47818356  0.25283862     0.35500
C539        C  0.99129431  0.57303567  0.22247245    -0.22000
C540        C  0.01689179  0.57181769  0.22191240    -0.22000
C541        C  0.98458413  0.42450713  0.24615198    -0.22000
C542        C  0.01024136  0.42309607  0.24590694    -0.22000
C543        C  0.92626985  0.51860420  0.25958176    -0.23100
C544        C  0.92509398  0.49327347  0.26319826    -0.23100
C545        C  0.07908472  0.51067074  0.25307000    -0.23100
C546        C  0.07801496  0.48534839  0.25696736    -0.23100
C547        C  0.95797777  0.54725507  0.24162695    -0.18400
C548        C  0.04850637  0.54265186  0.23932186    -0.18400
C549        C  0.04475790  0.45323151  0.25312636    -0.18400
C550        C  0.95384666  0.45807632  0.25475325    -0.18400
H551        H  0.98003787  0.58796680  0.21486186     0.14500
H552        H  0.02900424  0.58579808  0.21385436     0.14500
H553        H  0.97186777  0.40914860  0.24285135     0.14500
H554        H  0.02108966  0.40646588  0.24230055     0.14500
H555        H  0.91143495  0.53173627  0.26334421     0.12800
H556        H  0.90917717  0.48302168  0.27022167     0.12800
H557        H  0.09569132  0.52210903  0.25425479     0.12800
H558        H  0.09360237  0.47351239  0.26188928     0.12800
H559        H  0.00253607  0.52293358  0.25438654     0.26000
H560        H  0.00075363  0.48084137  0.26145808     0.26000
O561        O  0.23571423  0.70570432  0.24779587    -0.88500
C562        C  0.24812625  0.75549468  0.19148486     0.87500
Mg563      Mg  0.21001868  0.71248728  0.27763980     1.58100
O564        O  0.29638618  0.75088179  0.23573794    -0.88200
O565        O  0.27486824  0.69589867  0.24210572    -0.75500
C566        C  0.23772203  0.82653352  0.31730828     0.92600
O567        O  0.19665223  0.74434673  0.22341976    -0.75400
O568        O  0.21918773  0.81178302  0.31519892    -0.82900
Mg569      Mg  0.22162830  0.71204721  0.21071472     1.58000
C570        C  0.32771609  0.81604250  0.26405955     0.92500
O571        O  0.24224728  0.67930315  0.19358494    -0.81100
H572        H  0.32160369  0.73074607  0.25439754    -0.06500
C573        C  0.24723627  0.80837291  0.24618646     0.87500
O574        O  0.24175194  0.72519994  0.30337760    -0.75600
O575        O  0.25248364  0.73664136  0.20400094    -0.88400
O576        O  0.32432236  0.80462143  0.24347747    -0.81200
C577        C  0.31968313  0.76242111  0.17435066     0.92600
C578        C  0.26231165  0.67447333  0.18194975     0.92500
Mg579      Mg  0.27909464  0.78911641  0.28849538     1.58000
O580        O  0.25815833  0.82272379  0.30572594    -0.81100
O581        O  0.30352036  0.75631871  0.27557654    -0.75400
O582        O  0.30801100  0.74198844  0.17805511    -0.81200
O583        O  0.18954271  0.68548293  0.21742190    -0.82900
O584        O  0.19161011  0.75887025  0.32013741    -0.81200
C585        C  0.30792081  0.74553220  0.25496861     0.86900
O586        O  0.24810951  0.76462530  0.29511199    -0.88400
O587        O  0.26558234  0.79541680  0.25127421    -0.88500
O588        O  0.22631111  0.80492144  0.25670475    -0.75500
Mg589      Mg  0.28910896  0.72081493  0.21030177     1.58000
O590        O  0.31772249  0.78085413  0.18918407    -0.82900
H591        H  0.25238894  0.67849589  0.26707763    -0.06600
O592        O  0.20444717  0.74976089  0.26303579    -0.88200
H593        H  0.17842590  0.76944748  0.24501748    -0.06500
H594        H  0.26671769  0.74673136  0.32199058    -0.06600
C595        C  0.19239747  0.75495221  0.24411069     0.86900
C596        C  0.25400604  0.69262725  0.25278409     0.87500
C597        C  0.25260165  0.74581443  0.30761871     0.87500
H598        H  0.24886757  0.82257163  0.23196014    -0.06600
O599        O  0.25922779  0.77601142  0.19564091    -0.75700
Mg600      Mg  0.21153607  0.77993453  0.28832573     1.58000
H601        H  0.23396063  0.75469893  0.17715507    -0.06600
C602        C  0.17448445  0.68287124  0.23551146     0.92500
O603        O  0.18316995  0.71959004  0.30942795    -0.82900
C604        C  0.18020920  0.73825590  0.32376924     0.92600
O605        O  0.28144366  0.68850147  0.18360081    -0.82900
Mg606      Mg  0.29124342  0.78818706  0.22136634     1.58200
O607        O  0.17738096  0.69467973  0.25593726    -0.81200
O608        O  0.31212678  0.81455384  0.28185929    -0.82900
N609        N  0.25062086  0.03788070  0.50089163    -0.36700
N610        N  0.24382079  0.00046727  0.53879857    -0.57300
N611        N  0.24025620  0.96207844  0.50029580    -0.36700
N612        N  0.24973081  0.99982194  0.46243983    -0.57300
C613        C  0.25696672  0.05080434  0.52158773     0.26800
C614        C  0.25990833  0.05056267  0.48121281     0.26800
C615        C  0.24326867  0.94786461  0.52097965     0.26800
C616        C  0.24570075  0.94763272  0.48031175     0.26800
C617        C  0.24049947  0.02116702  0.55282245     0.35500
C618        C  0.23540761  0.98104044  0.55244746     0.35500
C619        C  0.24932662  0.02039574  0.44785926     0.35500
C620        C  0.24407308  0.98035655  0.44747518     0.35500
C621        C  0.27069696  0.07174137  0.51496061    -0.22000
C622        C  0.27238273  0.07168315  0.48942263    -0.22000
C623        C  0.25063840  0.92405727  0.51396462    -0.22000
C624        C  0.25190450  0.92385486  0.48831105    -0.22000
C625        C  0.22969537  0.01493842  0.57541040    -0.23100
C626        C  0.22644724  0.98950344  0.57517608    -0.23100
C627        C  0.24366459  0.01398757  0.42350389    -0.23100
C628        C  0.24042217  0.98856981  0.42323092    -0.23100
C629        C  0.24889041  0.04522647  0.54601935    -0.18400
C630        C  0.25567360  0.04460315  0.45599544    -0.18400
C631        C  0.24404950  0.95511005  0.45504333    -0.18400
C632        C  0.23851637  0.95564564  0.54584144    -0.18400
H633        H  0.27835471  0.08584310  0.52721472     0.14500
H634        H  0.28153985  0.08571141  0.47814535     0.14500
H635        H  0.25465069  0.90836767  0.52600331     0.14500
H636        H  0.25700348  0.90804854  0.47686342     0.14500
H637        H  0.22501383  0.02732345  0.59061369     0.12800
H638        H  0.21883353  0.97843348  0.59023657     0.12800
H639        H  0.24240969  0.02627291  0.40753955     0.12800
H640        H  0.23618651  0.97739286  0.40697384     0.12800
H641        H  0.23790546  0.02322742  0.49996705     0.26000
H642        H  0.23252385  0.97985118  0.49968596     0.26000
O643        O  0.26375719  0.25251297  0.79366167    -0.88500
C644        C  0.25083316  0.30954174  0.74384130     0.87500
Mg645      Mg  0.28968649  0.22238036  0.78705371     1.58100
O646        O  0.20232175  0.26550604  0.74857342    -0.88200
O647        O  0.22447993  0.25863559  0.80298126    -0.75500
C648        C  0.25966683  0.18334666  0.67376485     0.92600
O649        O  0.30244444  0.27668380  0.75462118    -0.75400
O650        O  0.27870891  0.18499940  0.68788754    -0.82900
Mg651      Mg  0.27762544  0.28979045  0.78684954     1.58000
C652        C  0.17147793  0.23756409  0.68297288     0.92500
O653        O  0.25721142  0.30776147  0.81963246    -0.81100
H654        H  0.17667133  0.24757084  0.76880877    -0.06500
C655        C  0.25180458  0.25490569  0.69193441     0.87500
O656        O  0.25792096  0.19636850  0.77464136    -0.75600
O657        O  0.24675774  0.29647013  0.76234140    -0.88400
O658        O  0.17447754  0.25817861  0.69443546    -0.81200
C659        C  0.17902030  0.32680000  0.73775062     0.92600
C660        C  0.23710761  0.31961049  0.82394978     0.92500
Mg661      Mg  0.21936135  0.21274167  0.71141401     1.58000
O662        O  0.23965232  0.19526279  0.67832842    -0.81100
O663        O  0.19482667  0.22567430  0.74392547    -0.75400
O664        O  0.19186198  0.32337193  0.75746112    -0.81200
O665        O  0.30981365  0.28321496  0.81297463    -0.82900
O666        O  0.30686843  0.17934149  0.74081097    -0.81200
C667        C  0.19047257  0.24654440  0.75417754     0.86900
O668        O  0.25057809  0.20582022  0.73576042    -0.88400
O669        O  0.23317775  0.24999535  0.70457881    -0.88500
O670        O  0.27249111  0.24386451  0.69536777    -0.75500
Mg671      Mg  0.21026071  0.29073423  0.77828457     1.58000
O672        O  0.18021689  0.31185562  0.71933029    -0.82900
H673        H  0.24641060  0.23316254  0.82038505    -0.06600
O674        O  0.29511564  0.23682873  0.74981405    -0.88200
H675        H  0.32087768  0.25490582  0.72984244    -0.06500
H676        H  0.23254036  0.17819981  0.75318071    -0.06600
C677        C  0.30694096  0.25585017  0.74435040     0.86900
C678        C  0.24517922  0.24762463  0.80638701     0.87500
C679        C  0.24654229  0.19269913  0.75423120     0.87500
H680        H  0.25062758  0.26940846  0.67797278    -0.06600
O681        O  0.23928647  0.30598619  0.72350802    -0.75700
Mg682      Mg  0.28713973  0.21170472  0.71985621     1.58000
H683        H  0.26497761  0.32390820  0.74480704    -0.06600
C684        C  0.32513006  0.26535277  0.81577009     0.92500
O685        O  0.31665947  0.19021526  0.77972225    -0.82900
C686        C  0.31886096  0.17563055  0.76109100     0.92600
O687        O  0.21813823  0.31755677  0.80988324    -0.82900
Mg688      Mg  0.20731349  0.28006106  0.71146617     1.58200
O689        O  0.32235987  0.24455205  0.80452771    -0.81200
O690        O  0.18670265  0.21954755  0.68550454    -0.82900
N691        N  0.99911796  0.46495684  0.74354018    -0.36700
N692        N  0.96083859  0.50244060  0.74845108    -0.57300
N693        N  0.99917270  0.54010577  0.75650743    -0.36700
N694        N  0.03762128  0.50290874  0.75400026    -0.57300
C695        C  0.97857498  0.45025274  0.74542478     0.26800
C696        C  0.01927794  0.45049454  0.74815213     0.26800
C697        C  0.97839994  0.55279989  0.76292669     0.26800
C698        C  0.01888445  0.55309264  0.76545517     0.26800
C699        C  0.94673554  0.48340270  0.73985082     0.35500
C700        C  0.94686999  0.52326161  0.74617496     0.35500
C701        C  0.05211078  0.48361797  0.74679176     0.35500
C702        C  0.05216961  0.52359301  0.75330465     0.35500
C703        C  0.98583899  0.42609310  0.75113584    -0.22000
C704        C  0.01149611  0.42620076  0.75266302    -0.22000
C705        C  0.98492929  0.57401675  0.77620840    -0.22000
C706        C  0.01048876  0.57411234  0.77795332    -0.22000
C707        C  0.92369741  0.49221684  0.73204209    -0.23100
C708        C  0.92375316  0.51749135  0.73615884    -0.23100
C709        C  0.07609141  0.49203087  0.74187709    -0.23100
C710        C  0.07604937  0.51737809  0.74573709    -0.23100
C711        C  0.95360036  0.45796557  0.74113694    -0.18400
C712        C  0.04451105  0.45830538  0.74650241    -0.18400
C713        C  0.04421055  0.54774192  0.76043978    -0.18400
C714        C  0.95399031  0.54697412  0.75501324    -0.18400
H715        H  0.97395166  0.40997336  0.75375826     0.14500
H716        H  0.02307121  0.41012607  0.75649657     0.14500
H717        H  0.97260940  0.58825406  0.78343151     0.14500
H718        H  0.02165548  0.58839000  0.78687023     0.14500
H719        H  0.90830707  0.48151274  0.72451821     0.12800
H720        H  0.90840382  0.53009593  0.73258445     0.12800
H721        H  0.09203200  0.48108233  0.73618084     0.12800
H722        H  0.09186111  0.52970331  0.74335031     0.12800
H723        H  0.99966453  0.48313828  0.73686287     0.26000
H724        H  0.99995925  0.52555275  0.74375764     0.26000
N725        N  0.49803408  0.27185438  0.03609273    -0.36700
N726        N  0.45970535  0.27480447  0.99820476    -0.57300
N727        N  0.49875981  0.27401124  0.96068353    -0.36700
N728        N  0.53707715  0.27321670  0.99863043    -0.57300
C729        C  0.47764616  0.27680999  0.05002948     0.26800
C730        C  0.51826407  0.27705705  0.05026996     0.26800
C731        C  0.47879344  0.28060057  0.94674319     0.26800
C732        C  0.51936042  0.27875863  0.94695538     0.26800
C733        C  0.44520527  0.26899823  0.01796875     0.35500
C734        C  0.44563441  0.27107576  0.97763471     0.35500
C735        C  0.55092874  0.26768893  0.01892313     0.35500
C736        C  0.55131532  0.26790504  0.97857577     0.35500
C737        C  0.48500575  0.28556753  0.07322466    -0.22000
C738        C  0.51064170  0.28560486  0.07342212    -0.22000
C739        C  0.48682986  0.28980366  0.92395412    -0.22000
C740        C  0.51243527  0.28876653  0.92414867    -0.22000
C741        C  0.42169307  0.26179991  0.00990667    -0.23100
C742        C  0.42189310  0.26337106  0.98434172    -0.23100
C743        C  0.57426000  0.25923383  0.01177920    -0.23100
C744        C  0.57443918  0.25918392  0.98616625    -0.23100
C745        C  0.45272287  0.27142081  0.04313628    -0.18400
C746        C  0.54320035  0.27170034  0.04372103    -0.18400
C747        C  0.54401496  0.27217899  0.95362148    -0.18400
C748        C  0.45363888  0.27587343  0.95302479    -0.18400
H749        H  0.47313395  0.29083776  0.08863901     0.14500
H750        H  0.52228567  0.29074830  0.08908125     0.14500
H751        H  0.47547606  0.29602768  0.90848635     0.14500
H752        H  0.52454829  0.29419078  0.90895801     0.14500
H753        H  0.40596702  0.25612831  0.02118707     0.12800
H754        H  0.40634135  0.25929899  0.97212769     0.12800
H755        H  0.58955664  0.25372261  0.02373780     0.12800
H756        H  0.58988152  0.25352182  0.97451764     0.12800
H757        H  0.49811666  0.26211102  0.01935764     0.26000
H758        H  0.49822888  0.26356389  0.97699160     0.26000
N759        N  0.46419633  0.77149818  0.00014999    -0.36700
N760        N  0.50157004  0.77073421  0.03904471    -0.57300
N761        N  0.53993096  0.77012670  0.00067694    -0.36700
N762        N  0.50250182  0.77351507  0.96193487    -0.57300
C763        C  0.45015643  0.77629796  0.02052461     0.26800
C764        C  0.45062418  0.77826593  0.98000193     0.26800
C765        C  0.55347614  0.77534856  0.02131475     0.26800
C766        C  0.55404890  0.77650980  0.98078128     0.26800
C767        C  0.48123451  0.76476445  0.05267110     0.35500
C768        C  0.52161670  0.76452918  0.05298291     0.35500
C769        C  0.48231986  0.77035259  0.94718300     0.35500
C770        C  0.52271630  0.76971383  0.94742851     0.35500
C771        C  0.42753648  0.78649086  0.01324045    -0.22000
C772        C  0.42774005  0.78752555  0.98766595    -0.22000
C773        C  0.57631824  0.78538792  0.01442533    -0.22000
C774        C  0.57674219  0.78595105  0.98883854    -0.22000
C775        C  0.48837666  0.75471662  0.07537650    -0.23100
C776        C  0.51400369  0.75456639  0.07557653    -0.23100
C777        C  0.48972070  0.76487237  0.92306277    -0.23100
C778        C  0.51537634  0.76441776  0.92322920    -0.23100
C779        C  0.45642428  0.76968074  0.04527439    -0.18400
C780        C  0.45745825  0.77417963  0.95491427    -0.18400
C781        C  0.54761880  0.77260761  0.95554910    -0.18400
C782        C  0.54659042  0.76924265  0.04602580    -0.18400
H783        H  0.41222599  0.79212291  0.02508265     0.14500
H784        H  0.41255784  0.79401445  0.97606869     0.14500
H785        H  0.59131928  0.79133624  0.02656208     0.14500
H786        H  0.59208097  0.79244756  0.97744561     0.14500
H787        H  0.47641161  0.74820422  0.09025060     0.12800
H788        H  0.52566029  0.74790566  0.09064123     0.12800
H789        H  0.47789893  0.76190049  0.90697336     0.12800
H790        H  0.52724218  0.76094262  0.90731026     0.12800
H791        H  0.48055022  0.76110982  0.99983779     0.26000
H792        H  0.52344997  0.75988456  0.00015277     0.26000
C793        C  0.38379128  0.25292324  0.85339960    -0.11000
C794        C  0.38252452  0.27171571  0.87169938     0.06200
C795        C  0.36292406  0.28908053  0.87043863    -0.09700
C796        C  0.34495668  0.28754510  0.85165207    -0.11400
C797        C  0.34586594  0.26839164  0.83379297    -0.01200
C798        C  0.36556134  0.25116473  0.83478511    -0.10300
C799        C  0.40105524  0.27286735  0.89241975     0.06200
H800        H  0.36094613  0.30347619  0.88442836     0.08100
H801        H  0.32980654  0.30089274  0.85168810     0.11600
H802        H  0.36675957  0.23617668  0.82131416     0.11800
H803        H  0.39883740  0.23948360  0.85345912     0.08100
C804        C  0.41100555  0.25083878  0.90271233    -0.11000
C805        C  0.42796273  0.25190892  0.92247833    -0.10300
C806        C  0.43508108  0.27495364  0.93255263    -0.01200
C807        C  0.42523611  0.29697955  0.92253143    -0.11400
C808        C  0.40852219  0.29597378  0.90253739    -0.09800
H809        H  0.40541343  0.23270795  0.89579635     0.08100
H810        H  0.43550602  0.23474795  0.93002049     0.11800
H811        H  0.43079014  0.31492805  0.92998517     0.11600
H812        H  0.40168168  0.31334189  0.89485324     0.08100
C813        C  0.14190206  0.38342498  0.75810282    -0.11000
C814        C  0.12335096  0.38478266  0.73962978     0.06200
C815        C  0.12425689  0.36784122  0.71963059    -0.09700
C816        C  0.14293236  0.34965401  0.71842047    -0.11400
C817        C  0.16111652  0.34792156  0.73722914    -0.01200
C818        C  0.16051364  0.36522083  0.75693922    -0.10300
C819        C  0.10294823  0.40352771  0.74140780     0.06200
H820        H  0.11007588  0.36814328  0.70525913     0.08100
H821        H  0.14263148  0.33644701  0.70315938     0.11600
H822        H  0.17419012  0.36443443  0.77178270     0.11800
H823        H  0.14202335  0.39642866  0.77353529     0.08100
C824        C  0.09213462  0.40936871  0.76458751    -0.11000
C825        C  0.07298955  0.42699680  0.76621939    -0.10300
C826        C  0.06418292  0.43894913  0.74471556    -0.01200
C827        C  0.07474428  0.43313241  0.72156766    -0.11400
C828        C  0.09400353  0.41565024  0.71992281    -0.09800
H829        H  0.09829484  0.40012693  0.78144271     0.08100
H830        H  0.06501769  0.43134969  0.78423181     0.11800
H831        H  0.06827790  0.44241827  0.70483897     0.11600
H832        H  0.10215008  0.41190102  0.70186625     0.08100
C833        C  0.23983801  0.10819000  0.57687994    -0.11000
C834        C  0.25436059  0.10593662  0.59862455     0.06200
C835        C  0.26626104  0.08300463  0.60344128    -0.09700
C836        C  0.26411098  0.06308789  0.58670114    -0.11400
C837        C  0.24974332  0.06554740  0.56496932    -0.01200
C838        C  0.23739714  0.08817713  0.56039559    -0.10300
C839        C  0.25668682  0.12724082  0.61637019     0.06200
H840        H  0.27715822  0.08035958  0.62021955     0.08100
H841        H  0.27391789  0.04584993  0.59053095     0.11600
H842        H  0.22629809  0.09051249  0.54367940     0.11800
H843        H  0.23068801  0.12558455  0.57228728     0.08100
C844        C  0.27890592  0.13139791  0.62977482    -0.11000
C845        C  0.28038722  0.15038339  0.64764517    -0.10300
C846        C  0.25973804  0.16577220  0.65240037    -0.01200
C847        C  0.23794378  0.16235684  0.63817773    -0.11400
C848        C  0.23639488  0.14329506  0.62052640    -0.09800
H849        H  0.29511836  0.11980602  0.62666707     0.08100
H850        H  0.29746645  0.15252445  0.65822194     0.11800
H851        H  0.22161507  0.17379247  0.64134852     0.11600
H852        H  0.21888123  0.14059029  0.61084815     0.08100
C853        C  0.36390494  0.74316556  0.12286238    -0.11000
C854        C  0.37511512  0.76598848  0.11643639     0.06200
C855        C  0.36655403  0.78795897  0.12789261    -0.09700
C856        C  0.34784466  0.78700567  0.14603659    -0.11400
C857        C  0.33720693  0.76405873  0.15303560    -0.01200
C858        C  0.34513681  0.74221845  0.14088606    -0.10300
C859        C  0.39608985  0.76674064  0.09835320     0.06200
H860        H  0.37449561  0.80588389  0.12297160     0.08100
H861        H  0.34204912  0.80417961  0.15492262     0.11600
H862        H  0.33751108  0.72419879  0.14596833     0.11800
H863        H  0.37023608  0.72588703  0.11456746     0.08100
C864        C  0.41697360  0.78206004  0.10272440    -0.11000
C865        C  0.43669890  0.78280628  0.08570524    -0.10300
C866        C  0.43602252  0.76812240  0.06406373    -0.01200
C867        C  0.41535911  0.75253745  0.05985091    -0.11400
C868        C  0.39556729  0.75190747  0.07676164    -0.09800
H869        H  0.41812986  0.79335685  0.11940622     0.08100
H870        H  0.45242064  0.79500073  0.08929935     0.11800
H871        H  0.41444944  0.74107058  0.04325951     0.11600
H872        H  0.37967549  0.74007768  0.07275733     0.08100
C873        C  0.25489099  0.88479700  0.35377587    -0.11000
C874        C  0.23732226  0.88434731  0.37327707     0.06200
C875        C  0.21849234  0.86600306  0.37263046    -0.09700
C876        C  0.21783262  0.84811262  0.35365262    -0.11400
C877        C  0.23618515  0.84781254  0.33497759    -0.01200
C878        C  0.25445080  0.86665387  0.33500234    -0.10300
C879        C  0.23911686  0.90227647  0.39460230     0.06200
H880        H  0.20477880  0.86473355  0.38734940     0.08100
H881        H  0.20359084  0.83377612  0.35431376     0.11600
H882        H  0.26875340  0.86708638  0.32077538     0.11800
H883        H  0.26924454  0.89899800  0.35312704     0.08100
C884        C  0.26250917  0.91078541  0.40318504    -0.11000
C885        C  0.26419114  0.92746393  0.42320551    -0.10300
C886        C  0.24258258  0.93570952  0.43531528    -0.01200
C887        C  0.21927621  0.92714817  0.42713308    -0.11400
C888        C  0.21752372  0.91071840  0.40693899    -0.09800
H889        H  0.27960539  0.90441758  0.39461061     0.08100
H890        H  0.28232870  0.93410887  0.42915751     0.11800
H891        H  0.20239061  0.93369949  0.43603021     0.11600
H892        H  0.19916745  0.90506188  0.40072071     0.08100
C893        C  0.09360470  0.59063217  0.21333838    -0.11000
C894        C  0.10226314  0.60231137  0.23522505     0.06200
C895        C  0.09420424  0.59295096  0.25839659    -0.09700
C896        C  0.07725132  0.57316169  0.25962060    -0.11400
C897        C  0.06826816  0.56204558  0.23776056    -0.01200
C898        C  0.07693889  0.57054786  0.21462250    -0.10300
C899        C  0.11953728  0.62414914  0.23401326     0.06200
H900        H  0.10095375  0.60092634  0.27565858     0.08100
H901        H  0.07082875  0.56670926  0.27764017     0.11600
H902        H  0.07012423  0.56216087  0.19756214     0.11800
H903        H  0.09915131  0.59740145  0.19516895     0.08100
C904        C  0.13791576  0.62577383  0.21538814    -0.11000
C905        C  0.15489304  0.64562184  0.21508271    -0.10300
C906        C  0.15411597  0.66421010  0.23355503    -0.01200
C907        C  0.13531316  0.66303434  0.25172042    -0.11400
C908        C  0.11813772  0.64337043  0.25183659    -0.09800
H909        H  0.13982441  0.61124288  0.20152867     0.08100
H910        H  0.16933385  0.64578072  0.20098986     0.11800
H911        H  0.13416131  0.67706744  0.26618551     0.11600
H912        H  0.10386726  0.64316005  0.26608032     0.08100
C913        C  0.59054025  0.28928999  0.09304584    -0.11000
C914        C  0.59685513  0.26583543  0.10300055     0.06200
C915        C  0.58539372  0.24434887  0.09318346    -0.09700
C916        C  0.56804117  0.24630518  0.07382179    -0.11400
C917        C  0.56191702  0.26972852  0.06394529    -0.01200
C918        C  0.57323714  0.29120821  0.07364567    -0.10300
C919        C  0.61566742  0.26380399  0.12322598     0.06200
H920        H  0.59012310  0.22601683  0.10022975     0.08100
H921        H  0.55941080  0.22957099  0.06645830     0.11600
H922        H  0.56851053  0.30942747  0.06629590     0.11800
H923        H  0.59881319  0.30618001  0.10044022     0.08100
C924        C  0.63753846  0.27824027  0.12243907    -0.11000
C925        C  0.65562520  0.27597058  0.14104580    -0.10300
C926        C  0.65228468  0.25919755  0.16092508    -0.01200
C927        C  0.63019999  0.24502415  0.16193606    -0.11400
C928        C  0.61211406  0.24726994  0.14325751    -0.09800
H929        H  0.64096388  0.29088621  0.10707122     0.08100
H930        H  0.67248009  0.28702590  0.13954676     0.11800
H931        H  0.62705497  0.23186966  0.17693481     0.11600
H932        H  0.59531437  0.23610094  0.14450280     0.08100
C933        C  0.90933037  0.40807674  0.27800194    -0.11000
C934        C  0.89248912  0.40582044  0.25791235     0.06200
C935        C  0.89621535  0.42105739  0.23681904    -0.09700
C936        C  0.91610516  0.43797491  0.23587637    -0.11400
C937        C  0.93290163  0.43986496  0.25583326    -0.01200
C938        C  0.92938114  0.42482903  0.27690281    -0.10300
C939        C  0.87151784  0.38732989  0.25869956     0.06200
H940        H  0.88404006  0.41963718  0.22078865     0.08100
H941        H  0.91855577  0.44949243  0.21946396     0.11600
H942        H  0.94203695  0.42625664  0.29258211     0.11800
H943        H  0.90690396  0.39708941  0.29474704     0.08100
C944        C  0.87446706  0.36419666  0.27078209    -0.11000
C945        C  0.85532122  0.34639772  0.27060561    -0.10300
C946        C  0.83271851  0.35103825  0.25809384    -0.01200
C947        C  0.82951249  0.37433051  0.24642827    -0.11400
C948        C  0.84857975  0.39227379  0.24684975    -0.09800
H949        H  0.89191412  0.35940161  0.27972489     0.08100
H950        H  0.85864346  0.32857382  0.27952103     0.11800
H951        H  0.81239923  0.37856028  0.23657097     0.11600
H952        H  0.84532800  0.41000251  0.23775080     0.08100
C953        C  0.71771505  0.08940100  0.40292734    -0.11000
C954        C  0.73700099  0.10718320  0.40113068     0.06200
C955        C  0.75775805  0.10493408  0.41704771    -0.09700
C956        C  0.75927162  0.08534294  0.43417565    -0.11400
C957        C  0.74015523  0.06755087  0.43566302    -0.01200
C958        C  0.71930380  0.06973296  0.42004273    -0.10300
C959        C  0.73604492  0.12746079  0.38215589     0.06200
H960        H  0.77309511  0.11804592  0.41593227     0.08100
H961        H  0.77541570  0.08396024  0.44624746     0.11600
H962        H  0.70422530  0.05632086  0.42126565     0.11800
H963        H  0.70132759  0.09079499  0.39121027     0.08100
C964        C  0.72729397  0.12258779  0.35793717    -0.11000
C965        C  0.72827188  0.14103700  0.33950225    -0.10300
C966        C  0.73814289  0.16479810  0.34479719    -0.01200
C967        C  0.74614451  0.16992476  0.36921567    -0.11400
C968        C  0.74502683  0.15151135  0.38768804    -0.09800
H969        H  0.72056422  0.10419832  0.35294188     0.08100
H970        H  0.72215250  0.13635523  0.32084186     0.11800
H971        H  0.75373442  0.18804964  0.37395609     0.11600
H972        H  0.75149829  0.15602222  0.40626645     0.08100
C973        C  0.62549501  0.78060724  0.86033793    -0.11000
C974        C  0.62924788  0.77161868  0.88467209     0.06200
C975        C  0.65258241  0.76119293  0.89073968    -0.09700
C976        C  0.67126375  0.75891303  0.87266805    -0.11400
C977        C  0.66716381  0.76728944  0.84818837    -0.01200
C978        C  0.64423393  0.77860687  0.84239821    -0.10300
C979        C  0.60852385  0.77219211  0.90319196     0.06200
H980        H  0.65635844  0.75454705  0.90941357     0.08100
H981        H  0.68875769  0.75020815  0.87776283     0.11600
H982        H  0.64033411  0.78507244  0.82367353     0.11800
H983        H  0.60771110  0.78837686  0.85479863     0.08100
C984        C  0.59125220  0.79199274  0.90344048    -0.11000
C985        C  0.57119650  0.79193330  0.92009569    -0.10300
C986        C  0.56811527  0.77220313  0.93695812    -0.01200
C987        C  0.58537032  0.75256692  0.93702841    -0.11400
C988        C  0.60529419  0.75247669  0.92024823    -0.09800
H989        H  0.59334847  0.80769944  0.89092864     0.08100
H990        H  0.55824200  0.80742152  0.92007837     0.11800
H991        H  0.58331682  0.73725725  0.95005787     0.11600
H992        H  0.61789103  0.73671461  0.92036630     0.08100
C993        C  0.90385630  0.58997381  0.77922843    -0.11000
C994        C  0.90071034  0.60637539  0.75899418     0.06200
C995        C  0.91480149  0.60257455  0.73723174    -0.09700
C996        C  0.93188288  0.58300164  0.73586675    -0.11400
C997        C  0.93502237  0.56687676  0.75615036    -0.01200
C998        C  0.92088533  0.57033224  0.77778849    -0.10300
C999        C  0.88265143  0.62724775  0.76043468     0.06200
H1000       H  0.91247180  0.61461839  0.72119430     0.08100
H1001       H  0.94274816  0.58045310  0.71905893     0.11600
H1002       H  0.92335323  0.55805555  0.79363694     0.11800
H1003       H  0.89346522  0.59259307  0.79630945     0.08100
C1004       C  0.85915326  0.62370003  0.77142873    -0.11000
C1005       C  0.84164527  0.64296470  0.77161170    -0.10300
C1006       C  0.84720932  0.66616549  0.76067646    -0.01200
C1007       C  0.87097860  0.66993332  0.75032286    -0.11400
C1008       C  0.88852824  0.65069846  0.75026086    -0.09800
H1009       H  0.85397516  0.60575388  0.77914621     0.08100
H1010       H  0.82340364  0.63933783  0.77947359     0.11800
H1011       H  0.87585206  0.68758738  0.74177559     0.11600
H1012       H  0.90665337  0.65411509  0.74205166     0.08100
C1013       C  0.73911299  0.91562859  0.59862310    -0.11000
C1014       C  0.76216326  0.90477335  0.60498872     0.06200
C1015       C  0.78326552  0.91067221  0.59052153    -0.09700
C1016       C  0.78139106  0.92733564  0.57048819    -0.11400
C1017       C  0.75843387  0.93837438  0.56462750    -0.01200
C1018       C  0.73730929  0.93233244  0.57872059    -0.10300
C1019       C  0.76390617  0.88725398  0.62650060     0.06200
H1020       H  0.80132082  0.90284816  0.59501328     0.08100
H1021       H  0.79791408  0.93205311  0.55988680     0.11600
H1022       H  0.71947526  0.94078549  0.57442650     0.11800
H1023       H  0.72237685  0.91112025  0.60895805     0.08100
C1024       C  0.74961143  0.89130465  0.64807511    -0.11000
C1025       C  0.74931678  0.87376161  0.66734502    -0.10300
C1026       C  0.76340070  0.85172098  0.66562112    -0.01200
C1027       C  0.77872820  0.84825807  0.64464593    -0.11400
C1028       C  0.77896901  0.86581723  0.62530631    -0.09800
H1029       H  0.73827638  0.90790271  0.64992143     0.08100
H1030       H  0.73737587  0.87712885  0.68324693     0.11800
H1031       H  0.78979814  0.83148961  0.64267767     0.11600
H1032       H  0.79013090  0.86203206  0.60894960     0.08100
C1033       C  0.74552699  0.35292056  0.10909138    -0.11000
C1034       C  0.76125829  0.37360985  0.11264798     0.06200
C1035       C  0.77687720  0.37422367  0.13365920    -0.09700
C1036       C  0.77621066  0.35494905  0.15117931    -0.11400
C1037       C  0.75995113  0.33458089  0.14803918    -0.01200
C1038       C  0.74492403  0.33357402  0.12655717    -0.10300
C1039       C  0.76097175  0.39476129  0.09482831     0.06200
H1040       H  0.78903646  0.39002968  0.13698285     0.08100
H1041       H  0.78794628  0.35638052  0.16755260     0.11600
H1042       H  0.73213369  0.31820104  0.12357812     0.11800
H1043       H  0.73354806  0.35179244  0.09286875     0.08100
C1044       C  0.78337155  0.40611544  0.08721401    -0.11000
C1045       C  0.78305656  0.42591722  0.07026023    -0.10300
C1046       C  0.76034922  0.43476269  0.06085825    -0.01200
C1047       C  0.73794151  0.42381611  0.06868955    -0.11400
C1048       C  0.73823817  0.40389913  0.08547044    -0.09800
H1049       H  0.80114518  0.39936374  0.09401336     0.08100
H1050       H  0.80048278  0.43421647  0.06428536     0.11800
H1051       H  0.72028325  0.43053875  0.06154262     0.11600
H1052       H  0.72068658  0.39577812  0.09130757     0.08100
C1053       C  0.75201719  0.60723123  0.91683201    -0.11000
C1054       C  0.73690608  0.60193033  0.89607472     0.06200
C1055       C  0.72388656  0.57922275  0.89524895    -0.09700
C1056       C  0.72615772  0.56199235  0.91471840    -0.11400
C1057       C  0.74211469  0.56679134  0.93500558    -0.01200
C1058       C  0.75482921  0.58970894  0.93597673    -0.10300
C1059       C  0.73543621  0.61983040  0.87506653     0.06200
H1060       H  0.71199044  0.57483941  0.87952246     0.08100
H1061       H  0.71598604  0.54454769  0.91365571     0.11600
H1062       H  0.76731718  0.59380773  0.95131719     0.11800
H1063       H  0.76230439  0.62461350  0.91780701     0.08100
C1064       C  0.72952104  0.64489905  0.87953048    -0.11000
C1065       C  0.73009156  0.66229371  0.86013743    -0.10300
C1066       C  0.73718237  0.65512948  0.83592830    -0.01200
C1067       C  0.74244417  0.62985567  0.83131063    -0.11400
C1068       C  0.74128296  0.61230249  0.85067427    -0.09800
H1069       H  0.72483377  0.65108736  0.89815431     0.08100
H1070       H  0.72606393  0.68162446  0.86439448     0.11800
H1071       H  0.74796393  0.62377560  0.81288856     0.11600
H1072       H  0.74597154  0.59303224  0.84683879     0.08100
C1073       C  0.25555457  0.39420616  0.92071339    -0.11000
C1074       C  0.23846366  0.39541908  0.90082849     0.06200
C1075       C  0.22279963  0.41641027  0.89892149    -0.09700
C1076       C  0.22427366  0.43568588  0.91644419    -0.11400
C1077       C  0.24158179  0.43443049  0.93602294    -0.01200
C1078       C  0.25720764  0.41357205  0.93798408    -0.10300
C1079       C  0.23757356  0.37514997  0.88188863     0.06200
H1080       H  0.20967844  0.41815745  0.88368330     0.08100
H1081       H  0.21196442  0.45160464  0.91474536     0.11600
H1082       H  0.27056879  0.41222455  0.95308084     0.11800
H1083       H  0.26756056  0.37816239  0.92310955     0.08100
C1084       C  0.25965190  0.36312946  0.87454651    -0.11000
C1085       C  0.25919501  0.34444218  0.85650706    -0.10300
C1086       C  0.23669917  0.33746701  0.84498841    -0.01200
C1087       C  0.21452186  0.34929985  0.85235165    -0.11400
C1088       C  0.21493420  0.36784847  0.87072710    -0.09800
H1089       H  0.27750653  0.36859829  0.88224501     0.08100
H1090       H  0.27669941  0.33603179  0.85100957     0.11800
H1091       H  0.19690434  0.34441164  0.84374495     0.11600
H1092       H  0.19752301  0.37644944  0.87617629     0.08100
C1093       C  0.28316940  0.62524066  0.13559155    -0.11000
C1094       C  0.26009371  0.61566226  0.12731173     0.06200
C1095       C  0.23816070  0.62447639  0.13858190    -0.09700
C1096       C  0.23919570  0.64263132  0.15714352    -0.11400
C1097       C  0.26214324  0.65293012  0.16466890    -0.01200
C1098       C  0.28416864  0.64385056  0.15390038    -0.10300
C1099       C  0.25873745  0.59708917  0.10663454     0.06200
H1100       H  0.22000857  0.61803192  0.13252208     0.08100
H1101       H  0.22179520  0.64935034  0.16485192     0.11600
H1102       H  0.30212002  0.65134045  0.15938733     0.11800
H1103       H  0.30051237  0.61850390  0.12782822     0.08100
C1104       C  0.27615156  0.59761625  0.08701246    -0.11000
C1105       C  0.27490142  0.58017178  0.06767590    -0.10300
C1106       C  0.25591001  0.56214158  0.06720714    -0.01200
C1107       C  0.23815772  0.56189495  0.08640930    -0.11400
C1108       C  0.23971842  0.57893306  0.10603883    -0.09800
H1109       H  0.29067510  0.61164106  0.08641237     0.08100
H1110       H  0.28878483  0.58070835  0.05304351     0.11800
H1111       H  0.22331397  0.54816029  0.08640178     0.11600
H1112       H  0.22617751  0.57757335  0.12091003     0.08100
C1113       C  0.36480973  0.12600161  0.74047755    -0.11000
C1114       C  0.37520211  0.11779140  0.76314159     0.06200
C1115       C  0.36603835  0.12818152  0.78543890    -0.09700
C1116       C  0.34729622  0.14649791  0.78496943    -0.11400
C1117       C  0.33706321  0.15466453  0.76221681    -0.01200
C1118       C  0.34593111  0.14396137  0.74003751    -0.10300
C1119       C  0.39557866  0.09867256  0.76314553     0.06200
H1120       H  0.37329250  0.12213737  0.80327357     0.08100
H1121       H  0.34092693  0.15438372  0.80240535     0.11600
H1122       H  0.33885632  0.15007709  0.72214156     0.11800
H1123       H  0.37168607  0.11901429  0.72286597     0.08100
C1124       C  0.39574838  0.07961487  0.74510437    -0.11000
C1125       C  0.41531612  0.06248073  0.74392418    -0.10300
C1126       C  0.43515758  0.06355481  0.76097328    -0.01200
C1127       C  0.43493948  0.08219254  0.77939471    -0.11400
C1128       C  0.41538870  0.09960845  0.78044545    -0.09800
H1129       H  0.38065053  0.07781465  0.73182508     0.08100
H1130       H  0.41497706  0.04825262  0.72959755     0.11800
H1131       H  0.44994916  0.08330795  0.79286899     0.11600
H1132       H  0.41608174  0.11409629  0.79447041     0.08100
C1133       C  0.61954669  0.86072422  0.75612000    -0.11000
C1134       C  0.61746921  0.87561225  0.73459473     0.06200
C1135       C  0.63353861  0.87066809  0.71442222    -0.09700
C1136       C  0.65140779  0.85165589  0.71601825    -0.11400
C1137       C  0.65314110  0.83683925  0.73755577    -0.01200
C1138       C  0.63680568  0.84138754  0.75739667    -0.10300
C1139       C  0.59880539  0.89626139  0.73370739     0.06200
H1140       H  0.63236478  0.88141407  0.69739108     0.08100
H1141       H  0.66390345  0.84858816  0.70048085     0.11600
H1142       H  0.63808834  0.83066875  0.77447118     0.11800
H1143       H  0.60831187  0.86433154  0.77244510     0.08100
C1144       C  0.57646387  0.89432620  0.74734209    -0.11000
C1145       C  0.55974021  0.91414961  0.74833530    -0.10300
C1146       C  0.56442682  0.93621858  0.73513546    -0.01200
C1147       C  0.58612134  0.93802686  0.72061973    -0.11400
C1148       C  0.60329689  0.91834188  0.72010784    -0.09800
H1149       H  0.57173348  0.87745553  0.75736005     0.08100
H1150       H  0.54301847  0.91228316  0.75950057     0.11800
H1151       H  0.58993083  0.95482505  0.71005086     0.11600
H1152       H  0.62030455  0.92074212  0.70954841     0.08100
C1153       C  0.37311366  0.78607893  0.86538521    -0.11000
C1154       C  0.37388357  0.77102002  0.88680267     0.06200
C1155       C  0.35419393  0.75418687  0.89113069    -0.09700
C1156       C  0.33480488  0.75163345  0.87385313    -0.11400
C1157       C  0.33469852  0.76583839  0.85183426    -0.01200
C1158       C  0.35377826  0.78350052  0.84809650    -0.10300
C1159       C  0.39571350  0.77200212  0.90388987     0.06200
H1160       H  0.35398206  0.74267893  0.90771913     0.08100
H1161       H  0.32037595  0.73791588  0.87735062     0.11600
H1162       H  0.35424033  0.79482049  0.83137886     0.11800
H1163       H  0.38802082  0.79913400  0.86142094     0.08100
C1164       C  0.40555486  0.74987015  0.91400476    -0.11000
C1165       C  0.42608548  0.75062265  0.93002234    -0.10300
C1166       C  0.43724483  0.77346372  0.93610431    -0.01200
C1167       C  0.42787848  0.79557581  0.92577131    -0.11400
C1168       C  0.40723653  0.79487092  0.90981413    -0.09800
H1169       H  0.39747034  0.73192562  0.90941411     0.08100
H1170       H  0.43311486  0.73341780  0.93795334     0.11800
H1171       H  0.43618815  0.81337203  0.93056589     0.11600
H1172       H  0.39999753  0.81224841  0.90250538     0.08100
C1173       C  0.11570523  0.64757811  0.74492110    -0.11000
C1174       C  0.11320745  0.63188776  0.76584769     0.06200
C1175       C  0.12829753  0.63681445  0.78683839    -0.09700
C1176       C  0.14595943  0.65618836  0.78644828    -0.11400
C1177       C  0.14850127  0.67148161  0.76531776    -0.01200
C1178       C  0.13279348  0.66724417  0.74481389    -0.10300
C1179       C  0.09541630  0.61026696  0.76522731     0.06200
H1180       H  0.12667174  0.62562079  0.80353960     0.08100
H1181       H  0.15782676  0.65902308  0.80254481     0.11600
H1182       H  0.13458247  0.67837264  0.72805099     0.11800
H1183       H  0.10513556  0.64423636  0.72807560     0.08100
C1184       C  0.07371855  0.61134432  0.75044677    -0.11000
C1185       C  0.05780946  0.59081780  0.74845170    -0.10300
C1186       C  0.06249224  0.56881991  0.76185741    -0.01200
C1187       C  0.08376100  0.56770005  0.77712499    -0.11400
C1188       C  0.10019186  0.58807458  0.77858158    -0.09800
H1189       H  0.06875338  0.62814071  0.74043565     0.08100
H1190       H  0.04146507  0.59224348  0.73665218     0.11800
H1191       H  0.08765942  0.55104896  0.78788027     0.11600
H1192       H  0.11679375  0.58620617  0.78989320     0.08100
C1193       C  0.26280234  0.88050361  0.64098568    -0.11000
C1194       C  0.24038963  0.88450280  0.62787322     0.06200
C1195       C  0.21902298  0.87106596  0.63526962    -0.09700
C1196       C  0.22026142  0.85371120  0.65478358    -0.11400
C1197       C  0.24271714  0.84986865  0.66769915    -0.01200
C1198       C  0.26384121  0.86370998  0.66083332    -0.10300
C1199       C  0.23955949  0.90256125  0.60664694     0.06200
H1200       H  0.20130797  0.87392402  0.62603255     0.08100
H1201       H  0.20369868  0.84324456  0.65974302     0.11600
H1202       H  0.28153665  0.86075577  0.67013627     0.11800
H1203       H  0.27985679  0.88984352  0.63557054     0.08100
C1204       C  0.22367523  0.89876084  0.58602110    -0.11000
C1205       C  0.22318243  0.91587340  0.56623956    -0.10300
C1206       C  0.23892312  0.93685109  0.56641536    -0.01200
C1207       C  0.25503483  0.94039530  0.58673729    -0.11400
C1208       C  0.25505923  0.92377430  0.60672450    -0.09800
H1209       H  0.21178635  0.88246230  0.58498253     0.08100
H1210       H  0.21056125  0.91274398  0.55078209     0.11800
H1211       H  0.26742129  0.95637467  0.58729902     0.11600
H1212       H  0.26711933  0.92782871  0.62238338     0.08100
C1213       C  0.27121513  0.64170742  0.88146274    -0.11000
C1214       C  0.26117724  0.61784804  0.87713086     0.06200
C1215       C  0.25101908  0.61256347  0.85352540    -0.09700
C1216       C  0.24986794  0.63099750  0.83511782    -0.11400
C1217       C  0.25911888  0.65508963  0.83975954    -0.01200
C1218       C  0.27027126  0.66008674  0.86296684    -0.10300
C1219       C  0.26012131  0.59896781  0.89747479     0.06200
H1220       H  0.24363192  0.59421833  0.84936369     0.08100
H1221       H  0.24133657  0.62648866  0.81738033     0.11600
H1222       H  0.27742150  0.67851244  0.86721634     0.11800
H1223       H  0.27893429  0.64651288  0.89948240     0.08100
C1224       C  0.27980086  0.59644452  0.91469729    -0.11000
C1225       C  0.27837792  0.57887545  0.93398039    -0.10300
C1226       C  0.25729759  0.56352845  0.93634125    -0.01200
C1227       C  0.23759034  0.56611532  0.91935475    -0.11400
C1228       C  0.23896287  0.58364142  0.90015079    -0.09800
H1229       H  0.29643958  0.60778917  0.91305699     0.08100
H1230       H  0.29381935  0.57699663  0.94686905     0.11800
H1231       H  0.22115317  0.55445198  0.92096603     0.11600
H1232       H  0.22325265  0.58541898  0.88759170     0.08100
C1233       C  0.36930311  0.86930127  0.71917355    -0.11000
C1234       C  0.38616206  0.87343601  0.73888207     0.06200
C1235       C  0.38566403  0.85700741  0.75936346    -0.09700
C1236       C  0.36876929  0.83718011  0.76023191    -0.11400
C1237       C  0.35148327  0.83350668  0.74091523    -0.01200
C1238       C  0.35203906  0.84967242  0.72026948    -0.10300
C1239       C  0.40408469  0.89479106  0.73842768     0.06200
H1240       H  0.39783298  0.85984909  0.77521088     0.08100
H1241       H  0.36849593  0.82540742  0.77664318     0.11600
H1242       H  0.33886708  0.84737003  0.70512675     0.11800
H1243       H  0.36935996  0.88125326  0.70291183     0.08100
C1244       C  0.39769861  0.91786616  0.72752015    -0.11000
C1245       C  0.41451613  0.93793006  0.72789295    -0.10300
C1246       C  0.43785857  0.93546388  0.73954890    -0.01200
C1247       C  0.44421289  0.91249202  0.75036513    -0.11400
C1248       C  0.42772928  0.89236990  0.74954166    -0.09800
H1249       H  0.37957654  0.92059703  0.71906009     0.08100
H1250       H  0.40927193  0.95542107  0.71924520     0.11800
H1251       H  0.46212175  0.91009359  0.75941296     0.11600
H1252       H  0.43366659  0.87482955  0.75757424     0.08100
C1253       C  0.13359845  0.71212520  0.37026813    -0.11000
C1254       C  0.12343301  0.73402575  0.38056480     0.06200
C1255       C  0.13290484  0.75719369  0.37260683    -0.09700
C1256       C  0.15194622  0.75844550  0.35488046    -0.11400
C1257       C  0.16181780  0.73658601  0.34434288    -0.01200
C1258       C  0.15243614  0.71339694  0.35225364    -0.10300
C1259       C  0.10307866  0.73278858  0.39948456     0.06200
H1260       H  0.12523999  0.77447289  0.37966016     0.08100
H1261       H  0.15840577  0.77663338  0.34886575     0.11600
H1262       H  0.15959295  0.69621299  0.34444310     0.11800
H1263       H  0.12710955  0.69393927  0.37621104     0.08100
C1264       C  0.08452554  0.71418597  0.39820989    -0.11000
C1265       C  0.06565423  0.71292497  0.41616720    -0.10300
C1266       C  0.06474166  0.73039441  0.43560209    -0.01200
C1267       C  0.08303228  0.74910425  0.43683403    -0.11400
C1268       C  0.10203809  0.75023512  0.41906516    -0.09800
H1269       H  0.08443756  0.70068967  0.38321731     0.08100
H1270       H  0.05177269  0.69827080  0.41496866     0.11800
H1271       H  0.08272630  0.76267653  0.45178020     0.11600
H1272       H  0.11617032  0.76455011  0.42096203     0.08100
C1273       C  0.86816875  0.71584903  0.63295142    -0.11000
C1274       C  0.87471883  0.73598600  0.61734256     0.06200
C1275       C  0.86060734  0.75808219  0.61892277    -0.09700
C1276       C  0.84097094  0.76013445  0.63586761    -0.11400
C1277       C  0.83528203  0.74042080  0.65214582    -0.01200
C1278       C  0.84893681  0.71817792  0.65039399    -0.10300
C1279       C  0.89639461  0.73417087  0.59992497     0.06200
H1280       H  0.86516258  0.77423239  0.60771490     0.08100
H1281       H  0.83096257  0.77764227  0.63700209     0.11600
H1282       H  0.84484218  0.70262418  0.66262728     0.11800
H1283       H  0.87794238  0.69824074  0.63187310     0.08100
C1284       C  0.91703991  0.71889253  0.60559730    -0.11000
C1285       C  0.93703466  0.71675416  0.58901820    -0.10300
C1286       C  0.93726427  0.73043955  0.56674898    -0.01200
C1287       C  0.91712044  0.74627743  0.56136467    -0.11400
C1288       C  0.89679259  0.74783674  0.57750438    -0.09800
H1289       H  0.91790542  0.70856416  0.62289362     0.08100
H1290       H  0.95226162  0.70426840  0.59349098     0.11800
H1291       H  0.91685389  0.75697240  0.54422861     0.11600
H1292       H  0.88121914  0.75942395  0.57203869     0.08100
C1293       C  0.09189401  0.71213282  0.59917309    -0.11000
C1294       C  0.10805694  0.73288491  0.59937868     0.06200
C1295       C  0.10436901  0.75188109  0.58164076    -0.09700
C1296       C  0.08487518  0.75029135  0.56436074    -0.11400
C1297       C  0.06861192  0.72976898  0.56452131    -0.01200
C1298       C  0.07230909  0.71064361  0.58196739    -0.10300
C1299       C  0.12806361  0.73512956  0.61856399     0.06200
H1300       H  0.11620340  0.76826304  0.58145564     0.08100
H1301       H  0.08228637  0.76519513  0.55096835     0.11600
H1302       H  0.06009186  0.69453225  0.58215354     0.11800
H1303       H  0.09444530  0.69697009  0.61226355     0.08100
C1304       C  0.12359903  0.72745143  0.64320608    -0.11000
C1305       C  0.14189874  0.73026099  0.66153727    -0.10300
C1306       C  0.16512371  0.74101727  0.65579588    -0.01200
C1307       C  0.16974542  0.74855798  0.63113369    -0.11400
C1308       C  0.15145559  0.74555358  0.61270013    -0.09800
H1309       H  0.10566684  0.71983656  0.64852854     0.08100
H1310       H  0.13755872  0.72457656  0.68041124     0.11800
H1311       H  0.18744419  0.75690429  0.62610440     0.11600
H1312       H  0.15563950  0.75138544  0.59384498     0.08100
C1313       C  0.63268689  0.78488579  0.13382500    -0.11000
C1314       C  0.62546112  0.76383291  0.11993702     0.06200
C1315       C  0.63732425  0.74091873  0.12471597    -0.09700
C1316       C  0.65549888  0.73896524  0.14327463    -0.11400
C1317       C  0.66207989  0.75981687  0.15771790    -0.01200
C1318       C  0.65072061  0.78288456  0.15254281    -0.10300
C1319       C  0.60530610  0.76554607  0.10092163     0.06200
H1320       H  0.63201616  0.72422356  0.11467283     0.08100
H1321       H  0.66375930  0.72088476  0.14686354     0.11600
H1322       H  0.65543387  0.79934971  0.16325882     0.11800
H1323       H  0.62433619  0.80293115  0.13032039     0.08100
C1324       C  0.58446628  0.78104587  0.10473176    -0.11000
C1325       C  0.56539320  0.78227553  0.08698156    -0.10300
C1326       C  0.56657404  0.76775899  0.06525781    -0.01200
C1327       C  0.58724026  0.75217859  0.06149317    -0.11400
C1328       C  0.60649386  0.75126404  0.07898113    -0.09800
H1329       H  0.58270234  0.79199227  0.12157814     0.08100
H1330       H  0.54967667  0.79453083  0.09018821     0.11800
H1331       H  0.58855450  0.74086895  0.04482545     0.11600
H1332       H  0.62242139  0.73948941  0.07517383     0.08100
C1333       C  0.87022410  0.63222451  0.21766063    -0.11000
C1334       C  0.88342682  0.62562153  0.23934809     0.06200
C1335       C  0.87725908  0.63748133  0.26188394    -0.09700
C1336       C  0.85826657  0.65526978  0.26278240    -0.11400
C1337       C  0.84473371  0.66148970  0.24121624    -0.01200
C1338       C  0.85105951  0.64990414  0.21859635    -0.10300
C1339       C  0.90320673  0.60612916  0.23872035     0.06200
H1340       H  0.88665758  0.63253478  0.27904825     0.08100
H1341       H  0.85368861  0.66357762  0.28058792     0.11600
H1342       H  0.84098467  0.65425514  0.20164613     0.11800
H1343       H  0.87469594  0.62372908  0.19992867     0.08100
C1344       C  0.90053594  0.58472127  0.22374693    -0.11000
C1345       C  0.91858448  0.56588594  0.22419894    -0.10300
C1346       C  0.93954561  0.56796431  0.23977045    -0.01200
C1347       C  0.94256089  0.58952077  0.25427439    -0.11400
C1348       C  0.92464229  0.60842423  0.25370917    -0.09800
H1349       H  0.88417256  0.58217987  0.21218817     0.08100
H1350       H  0.91598109  0.54942278  0.21278410     0.11800
H1351       H  0.95865399  0.59152416  0.26632944     0.11600
H1352       H  0.92756837  0.62483933  0.26509302     0.08100
C1353       C  0.78166664  0.87247948  0.36720562    -0.11000
C1354       C  0.75891383  0.88279392  0.37539358     0.06200
C1355       C  0.73666289  0.87388849  0.36467346    -0.09700
C1356       C  0.73703561  0.85510474  0.34671994    -0.11400
C1357       C  0.75960630  0.84411440  0.33929584    -0.01200
C1358       C  0.78198896  0.85319123  0.34952623    -0.10300
C1359       C  0.75805250  0.90219725  0.39541502     0.06200
H1360       H  0.71869678  0.88073776  0.37071658     0.08100
H1361       H  0.71939212  0.84845179  0.33943807     0.11600
H1362       H  0.79970175  0.84518963  0.34410078     0.11800
H1363       H  0.79925955  0.87915373  0.37453063     0.08100
C1364       C  0.77586619  0.90261744  0.41475251    -0.11000
C1365       C  0.77451939  0.92047766  0.43375343    -0.10300
C1366       C  0.75512017  0.93804183  0.43410259    -0.01200
C1367       C  0.73712782  0.93744051  0.41512824    -0.11400
C1368       C  0.73878853  0.92005977  0.39584027    -0.09800
H1369       H  0.79067761  0.88894917  0.41548690     0.08100
H1370       H  0.78860199  0.92059582  0.44823736     0.11800
H1371       H  0.72196596  0.95077859  0.41504457     0.11600
H1372       H  0.72500114  0.92088036  0.38113728     0.08100
C1373       C  0.75994962  0.59567932  0.09254916    -0.11000
C1374       C  0.73846921  0.59458455  0.10757828     0.06200
C1375       C  0.71950741  0.57753957  0.10130650    -0.09700
C1376       C  0.72227356  0.56156264  0.08081322    -0.11400
C1377       C  0.74385853  0.56261690  0.06604508    -0.01200
C1378       C  0.76256985  0.57991249  0.07194124    -0.10300
C1379       C  0.73613203  0.61121770  0.12968409     0.06200
H1380       H  0.70284117  0.57617534  0.11260191     0.08100
H1381       H  0.70776349  0.54811439  0.07664407     0.11600
H1382       H  0.77940340  0.58085625  0.06084473     0.11800
H1383       H  0.77472387  0.60883304  0.09671890     0.08100
C1384       C  0.75652356  0.61467916  0.14576884    -0.11000
C1385       C  0.75539887  0.63202812  0.16518615    -0.10300
C1386       C  0.73389337  0.64657938  0.16895516    -0.01200
C1387       C  0.71301395  0.64224105  0.15359699    -0.11400
C1388       C  0.71408932  0.62465043  0.13424699    -0.09800
H1389       H  0.77358952  0.60425550  0.14301706     0.08100
H1390       H  0.77181401  0.63469415  0.17665727     0.11800
H1391       H  0.69615780  0.65309354  0.15591212     0.11600
H1392       H  0.69806793  0.62236866  0.12215395     0.08100
C1393       C  0.85353269  0.74783116  0.38906748    -0.11000
C1394       C  0.87045827  0.72771789  0.38940567     0.06200
C1395       C  0.86730055  0.70857468  0.37173925    -0.09700
C1396       C  0.84839630  0.70982232  0.35385003    -0.11400
C1397       C  0.83222364  0.73040625  0.35280686    -0.01200
C1398       C  0.83474566  0.74923400  0.37089945    -0.10300
C1399       C  0.89191873  0.72702625  0.40727814     0.06200
H1400       H  0.88006252  0.69297580  0.37098956     0.08100
H1401       H  0.84714673  0.69504072  0.34015269     0.11600
H1402       H  0.82252231  0.76530408  0.37073228     0.11800
H1403       H  0.85492613  0.76266663  0.40267317     0.08100
C1404       C  0.90398630  0.74916804  0.41480141    -0.11000
C1405       C  0.92457204  0.74838597  0.43088741    -0.10300
C1406       C  0.93378160  0.72548046  0.43956266    -0.01200
C1407       C  0.92208924  0.70335314  0.43191084    -0.11400
C1408       C  0.90122566  0.70411296  0.41623765    -0.09800
H1409       H  0.89780989  0.76713633  0.40798672     0.08100
H1410       H  0.93334541  0.76567544  0.43662271     0.11800
H1411       H  0.92881580  0.68549902  0.43856211     0.11600
H1412       H  0.89226876  0.68667817  0.41136851     0.08100
C1413       C  0.41361752  0.90343081  0.28754969    -0.11000
C1414       C  0.40336048  0.89278763  0.26582847     0.06200
C1415       C  0.40939608  0.90342278  0.24260775    -0.09700
C1416       C  0.42595761  0.92346194  0.24104991    -0.11400
C1417       C  0.43650398  0.93363161  0.26265994    -0.01200
C1418       C  0.42986994  0.92383188  0.28597591    -0.10300
C1419       C  0.38607395  0.87103283  0.26717493     0.06200
H1420       H  0.40128956  0.89630611  0.22555214     0.08100
H1421       H  0.43079264  0.93092672  0.22292267     0.11600
H1422       H  0.43791867  0.93148517  0.30284479     0.11800
H1423       H  0.40955305  0.89568384  0.30572472     0.08100
C1424       C  0.38583194  0.85292619  0.24817757    -0.11000
C1425       C  0.36767702  0.83419000  0.24781443    -0.10300
C1426       C  0.34950246  0.83291747  0.26661519    -0.01200
C1427       C  0.35082239  0.84990125  0.28653263    -0.11400
C1428       C  0.36880130  0.86881386  0.28674587    -0.09800
H1429       H  0.39934711  0.85353885  0.23322179     0.08100
H1430       H  0.36738890  0.82121701  0.23235019     0.11800
H1431       H  0.33713328  0.84943447  0.30134505     0.11600
H1432       H  0.36831015  0.88240615  0.30164129     0.08100
C1433       C  0.63437734  0.12751621  0.21345763    -0.11000
C1434       C  0.62890081  0.11311055  0.23482447     0.06200
C1435       C  0.64355966  0.11697046  0.25630828    -0.09700
C1436       C  0.66308733  0.13415817  0.25636393    -0.11400
C1437       C  0.66808546  0.14880897  0.23530425    -0.01200
C1438       C  0.65346047  0.14546145  0.21385395    -0.10300
C1439       C  0.60801200  0.09440187  0.23507662     0.06200
H1440       H  0.63969569  0.10730615  0.27355366     0.08100
H1441       H  0.67359568  0.13678643  0.27341995     0.11600
H1442       H  0.65680270  0.15668760  0.19740199     0.11800
H1443       H  0.62405484  0.12502793  0.19632506     0.08100
C1444       C  0.58727625  0.09662751  0.21899075    -0.11000
C1445       C  0.56784025  0.07909972  0.21960122    -0.10300
C1446       C  0.56816072  0.05942181  0.23689039    -0.01200
C1447       C  0.58851073  0.05742291  0.25322361    -0.11400
C1448       C  0.60838866  0.07417538  0.25189681    -0.09800
H1449       H  0.58572445  0.11203297  0.20607697     0.08100
H1450       H  0.55238680  0.08104209  0.20673751     0.11800
H1451       H  0.58922897  0.04250098  0.26683105     0.11600
H1452       H  0.62410823  0.07090774  0.26407678     0.08100
C1453       C  0.59143026  0.90576797  0.28332908    -0.11000
C1454       C  0.59917413  0.89193484  0.26245544     0.06200
C1455       C  0.59025313  0.89878152  0.23873931    -0.09700
C1456       C  0.57344042  0.91850061  0.23605782    -0.11400
C1457       C  0.56547810  0.93190735  0.25697767    -0.01200
C1458       C  0.57479065  0.92563565  0.28058491    -0.10300
C1459       C  0.61640934  0.87041377  0.26534138     0.06200
H1460       H  0.59627826  0.88889381  0.22222965     0.08100
H1461       H  0.56643425  0.92319178  0.21770937     0.11600
H1462       H  0.56866849  0.93576668  0.29692368     0.11800
H1463       H  0.59775259  0.90086698  0.30185694     0.08100
C1464       C  0.63634235  0.87144955  0.28234361    -0.11000
C1465       C  0.65326593  0.85172722  0.28411011    -0.10300
C1466       C  0.65081894  0.83065820  0.26870398    -0.01200
C1467       C  0.63047456  0.82923222  0.25227430    -0.11400
C1468       C  0.61336263  0.84882922  0.25072984    -0.09800
H1469       H  0.63941221  0.88789040  0.29365958     0.08100
H1470       H  0.66897828  0.85353903  0.29668724     0.11800
H1471       H  0.62809027  0.81319339  0.24022928     0.11600
H1472       H  0.59787862  0.84719492  0.23786645     0.08100
C1473       C  0.60080549  0.28429440  0.91327998    -0.11000
C1474       C  0.59693745  0.26765595  0.89332348     0.06200
C1475       C  0.57588694  0.25194349  0.89391078    -0.09700
C1476       C  0.55907822  0.25305738  0.91377917    -0.11400
C1477       C  0.56282458  0.27000804  0.93337620    -0.01200
C1478       C  0.58384895  0.28556597  0.93299345    -0.10300
C1479       C  0.61500422  0.26660788  0.87224386     0.06200
H1480       H  0.57212389  0.23909281  0.87881300     0.08100
H1481       H  0.54288710  0.24094276  0.91372226     0.11600
H1482       H  0.58701687  0.29883017  0.94788832     0.11800
H1483       H  0.61706807  0.29626818  0.91379698     0.08100
C1484       C  0.62712516  0.28838663  0.86394235    -0.11000
C1485       C  0.64567470  0.28720302  0.84569340    -0.10300
C1486       C  0.65237698  0.26424681  0.83503123    -0.01200
C1487       C  0.63938380  0.24262362  0.84237642    -0.11400
C1488       C  0.62100548  0.24377022  0.86082556    -0.09800
H1489       H  0.62250539  0.30640298  0.87177443     0.08100
H1490       H  0.65512968  0.30423960  0.84031219     0.11800
H1491       H  0.64408755  0.22459672  0.83458889     0.11600
H1492       H  0.61223473  0.22657783  0.86680163     0.08100
C1493       C  0.86492804  0.37430671  0.71313897    -0.11000
C1494       C  0.87261613  0.38546744  0.73567078     0.06200
C1495       C  0.86065037  0.37808693  0.75781310    -0.09700
C1496       C  0.84194021  0.35997005  0.75756065    -0.11400
C1497       C  0.83487475  0.34820474  0.73523970    -0.01200
C1498       C  0.84640568  0.35575684  0.71295472    -0.10300
C1499       C  0.89331413  0.40425044  0.73646541     0.06200
H1500       H  0.86625989  0.38564906  0.77564709     0.08100
H1501       H  0.83371317  0.35447461  0.77515330     0.11600
H1502       H  0.84137536  0.34708907  0.69543105     0.11800
H1503       H  0.87328066  0.37977647  0.69562031     0.08100
C1504       C  0.91362528  0.40297908  0.71983235    -0.11000
C1505       C  0.93330816  0.42021150  0.72134130    -0.10300
C1506       C  0.93327984  0.43888306  0.73969199    -0.01200
C1507       C  0.91318280  0.44005906  0.75637687    -0.11400
C1508       C  0.89334445  0.42325638  0.75458077    -0.09800
H1509       H  0.91457538  0.38845003  0.70587786     0.08100
H1510       H  0.94856120  0.41900517  0.70819045     0.11800
H1511       H  0.91269491  0.45432866  0.77065652     0.11600
H1512       H  0.87791201  0.42539302  0.76736465     0.08100
C1513       C  0.71471478  0.12849115  0.63408492    -0.11000
C1514       C  0.73390821  0.12760119  0.61623851     0.06200
C1515       C  0.75189238  0.14675037  0.61616386    -0.09700
C1516       C  0.75171204  0.16527657  0.63441357    -0.11400
C1517       C  0.73329762  0.16540269  0.65298953    -0.01200
C1518       C  0.71434167  0.14726583  0.65217239    -0.10300
C1519       C  0.73591821  0.10633364  0.59848014     0.06200
H1520       H  0.76646110  0.14724348  0.60223336     0.08100
H1521       H  0.76644586  0.17912366  0.63434442     0.11600
H1522       H  0.69987248  0.14683697  0.66622885     0.11800
H1523       H  0.70058775  0.11407350  0.63486749     0.08100
C1524       C  0.75952162  0.09763530  0.59093410    -0.11000
C1525       C  0.76162399  0.07813093  0.57386545    -0.10300
C1526       C  0.74022626  0.06655236  0.56437989    -0.01200
C1527       C  0.71665248  0.07445797  0.57239396    -0.11400
C1528       C  0.71448418  0.09433596  0.58911122    -0.09800
H1529       H  0.77647120  0.10579097  0.59828374     0.08100
H1530       H  0.77995398  0.07210099  0.56793406     0.11800
H1531       H  0.69995730  0.06565839  0.56514594     0.11600
H1532       H  0.69601531  0.10059110  0.59424527     0.08100
C1533       C  0.78665884  0.37003744  0.86715404    -0.11000
C1534       C  0.76499824  0.37627245  0.88053987     0.06200
C1535       C  0.74351853  0.36157051  0.87721938    -0.09700
C1536       C  0.74333353  0.34185730  0.86016956    -0.11400
C1537       C  0.76459982  0.33638012  0.84585818    -0.01200
C1538       C  0.78645159  0.35035246  0.84997299    -0.10300
C1539       C  0.76455718  0.39823413  0.89758063     0.06200
H1540       H  0.72670007  0.36547712  0.88765208     0.08100
H1541       H  0.72618329  0.33147046  0.85759930     0.11600
H1542       H  0.80315888  0.34667585  0.83927879     0.11800
H1543       H  0.80351570  0.38098553  0.86924579     0.08100
C1544       C  0.78496832  0.40355637  0.91319784    -0.11000
C1545       C  0.78399312  0.42349232  0.93001773    -0.10300
C1546       C  0.76270205  0.43862593  0.93141943    -0.01200
C1547       C  0.74259591  0.43389484  0.91536539    -0.11400
C1548       C  0.74349189  0.41388364  0.89862925    -0.09800
H1549       H  0.80137790  0.39181320  0.91299938     0.08100
H1550       H  0.79959429  0.42676020  0.94243502     0.11800
H1551       H  0.72595068  0.44528141  0.91630087     0.11600
H1552       H  0.72762773  0.41057809  0.88656983     0.08100
C1553       C  0.59782186  0.09072007  0.73957200    -0.11000
C1554       C  0.60726231  0.09725151  0.76317601     0.06200
C1555       C  0.59585268  0.08716203  0.78453662    -0.09700
C1556       C  0.57561820  0.07079967  0.78230706    -0.11400
C1557       C  0.56647424  0.06425847  0.75871841    -0.01200
C1558       C  0.57767132  0.07429747  0.73737956    -0.10300
C1559       C  0.62854178  0.11495676  0.76538592     0.06200
H1560       H  0.60284606  0.09157242  0.80294785     0.08100
H1561       H  0.56739536  0.06281517  0.79892691     0.11600
H1562       H  0.57092486  0.06920486  0.71904111     0.11800
H1563       H  0.60588125  0.09847497  0.72277527     0.08100
C1564       C  0.64838427  0.11420437  0.74828709    -0.11000
C1565       C  0.66712307  0.13236200  0.74884345    -0.10300
C1566       C  0.66654694  0.15158131  0.76663446    -0.01200
C1567       C  0.64745272  0.15156464  0.78456703    -0.11400
C1568       C  0.62861621  0.13350785  0.78389474    -0.09800
H1569       H  0.64917612  0.09982190  0.73415014     0.08100
H1570       H  0.68167252  0.13176260  0.73487605     0.11800
H1571       H  0.64633946  0.16624116  0.79838457     0.11600
H1572       H  0.61351212  0.13475980  0.79720301     0.08100
C1573       C  0.38006258  0.23989524  0.13866201    -0.11000
C1574       C  0.38344510  0.26262116  0.12590696     0.06200
C1575       C  0.36999192  0.28366757  0.13407958    -0.09700
C1576       C  0.35290114  0.28175536  0.15367994    -0.11400
C1577       C  0.34943273  0.25895899  0.16605000    -0.01200
C1578       C  0.36353408  0.23819832  0.15868257    -0.10300
C1579       C  0.40068575  0.26427441  0.10410655     0.06200
H1580       H  0.37252802  0.30167275  0.12530802     0.08100
H1581       H  0.34228292  0.29805360  0.15908412     0.11600
H1582       H  0.36089250  0.22026981  0.16764761     0.11800
H1583       H  0.38956010  0.22311267  0.13277143     0.08100
C1584       C  0.42208534  0.24912497  0.10276436    -0.11000
C1585       C  0.43835890  0.25090789  0.08254801    -0.10300
C1586       C  0.43403069  0.26826501  0.06343268    -0.01200
C1587       C  0.41265950  0.28327736  0.06450931    -0.11400
C1588       C  0.39600097  0.28107688  0.08443012    -0.09800
H1589       H  0.42670391  0.23624684  0.11758906     0.08100
H1590       H  0.45476258  0.23913752  0.08209929     0.11800
H1591       H  0.40899174  0.29686941  0.05002439     0.11600
H1592       H  0.37945248  0.29259858  0.08433072     0.08100
C1593       C  0.14635144  0.38439444  0.24645161    -0.11000
C1594       C  0.12367307  0.37912486  0.25857154     0.06200
C1595       C  0.12149310  0.35646717  0.27166390    -0.09700
C1596       C  0.14111311  0.33918270  0.27179989    -0.11400
C1597       C  0.16339814  0.34408395  0.25879969    -0.01200
C1598       C  0.16589350  0.36711046  0.24650052    -0.10300
C1599       C  0.10236186  0.39703388  0.25697555     0.06200
H1600       H  0.10430094  0.35168008  0.28109188     0.08100
H1601       H  0.13844771  0.32158443  0.28136957     0.11600
H1602       H  0.18277982  0.37159412  0.23638504     0.11800
H1603       H  0.14897413  0.40189054  0.23670136     0.08100
C1604       C  0.08661919  0.40136651  0.27752989    -0.11000
C1605       C  0.06742233  0.41909761  0.27610909    -0.10300
C1606       C  0.06362710  0.43283522  0.25415450    -0.01200
C1607       C  0.07876783  0.42806256  0.23342996    -0.11400
C1608       C  0.09783096  0.41031939  0.23477661    -0.09800
H1609       H  0.08959075  0.39160454  0.29494207     0.08100
H1610       H  0.05593951  0.42258472  0.29232075     0.11800
H1611       H  0.07600957  0.43837432  0.21628547     0.11600
H1612       H  0.10909955  0.40705852  0.21838057     0.08100
C1613       C  0.24117814  0.10277269  0.41902983    -0.11000
C1614       C  0.26229605  0.10502569  0.40358395     0.06200
C1615       C  0.28111830  0.08676019  0.40537326    -0.09700
C1616       C  0.27881744  0.06682863  0.42205945    -0.11400
C1617       C  0.25784389  0.06496630  0.43746310    -0.01200
C1618       C  0.23911384  0.08307657  0.43593857    -0.10300
C1619       C  0.26425215  0.12595114  0.38532133     0.06200
H1620       H  0.29782537  0.08799072  0.39415607     0.08100
H1621       H  0.29353141  0.05305251  0.42324548     0.11600
H1622       H  0.22281114  0.08183938  0.44778231     0.11800
H1623       H  0.22599093  0.11599411  0.41785686     0.08100
C1624       C  0.27592939  0.12241792  0.36212400    -0.11000
C1625       C  0.27592482  0.14134420  0.34420385    -0.10300
C1626       C  0.26389641  0.16416057  0.34884053    -0.01200
C1627       C  0.25319207  0.16816065  0.37237486    -0.11400
C1628       C  0.25353337  0.14936994  0.39044851    -0.09800
H1629       H  0.28415168  0.10465128  0.35726907     0.08100
H1630       H  0.28430031  0.13759376  0.32624229     0.11800
H1631       H  0.24392825  0.18558845  0.37662625     0.11600
H1632       H  0.24501903  0.15313655  0.40832251     0.08100
C1633       C  0.25141942  0.34779465  0.11015557    -0.11000
C1634       C  0.23895434  0.37037462  0.11518501     0.06200
C1635       C  0.22574399  0.37245444  0.13774192    -0.09700
C1636       C  0.22574131  0.35298312  0.15507831    -0.11400
C1637       C  0.23931079  0.33102687  0.15059634    -0.01200
C1638       C  0.25175195  0.32845970  0.12770520    -0.10300
C1639       C  0.24033130  0.39187943  0.09743921     0.06200
H1640       H  0.21617371  0.38952092  0.14260905     0.08100
H1641       H  0.21602202  0.35566852  0.17254718     0.11600
H1642       H  0.26228930  0.31174265  0.12357657     0.11800
H1643       H  0.26120619  0.34506560  0.09275368     0.08100
C1644       C  0.26170349  0.39573305  0.08263305    -0.11000
C1645       C  0.26298064  0.41578812  0.06600664    -0.10300
C1646       C  0.24317444  0.43268953  0.06414338    -0.01200
C1647       C  0.22201387  0.42933016  0.07902862    -0.11400
C1648       C  0.22050702  0.40904186  0.09538106    -0.09800
H1649       H  0.27763316  0.38344249  0.08400884     0.08100
H1650       H  0.27943728  0.41816352  0.05455521     0.11800
H1651       H  0.20647146  0.44213816  0.07758227     0.11600
H1652       H  0.20355786  0.40661892  0.10602341     0.08100
C1653       C  0.41278299  0.09194878  0.21700632    -0.11000
C1654       C  0.39624601  0.09542866  0.23709369     0.06200
C1655       C  0.40077640  0.08241021  0.25943235    -0.09700
C1656       C  0.42083675  0.06593141  0.26145689    -0.11400
C1657       C  0.43686493  0.06202680  0.24121389    -0.01200
C1658       C  0.43292219  0.07540057  0.21907369    -0.10300
C1659       C  0.37466550  0.11290847  0.23524087     0.06200
H1660       H  0.38888069  0.08505665  0.27549228     0.08100
H1661       H  0.42362637  0.05580095  0.27870540     0.11600
H1662       H  0.44503365  0.07249991  0.20320541     0.11800
H1663       H  0.40983380  0.10155652  0.19950562     0.08100
C1664       C  0.37692757  0.13581403  0.22264283    -0.11000
C1665       C  0.35764282  0.15339006  0.22342202    -0.10300
C1666       C  0.33565493  0.14855267  0.23692084    -0.01200
C1667       C  0.33281033  0.12508892  0.24827573    -0.11400
C1668       C  0.35201726  0.10746314  0.24735016    -0.09800
H1669       H  0.39407105  0.14071226  0.21318608     0.08100
H1670       H  0.36048322  0.17124731  0.21439551     0.11800
H1671       H  0.31604614  0.12061098  0.25859407     0.11600
H1672       H  0.34932161  0.08972791  0.25664190     0.08100
C1673       C  0.86594368  0.21532878  0.36526139    -0.11000
C1674       C  0.88212311  0.23519420  0.37126472     0.06200
C1675       C  0.88022925  0.25744772  0.35740623    -0.09700
C1676       C  0.86282314  0.25977242  0.33818049    -0.11400
C1677       C  0.84638688  0.24016431  0.33262964    -0.01200
C1678       C  0.84808619  0.21790185  0.34636500    -0.10300
C1679       C  0.90064988  0.23303459  0.39200770     0.06200
H1680       H  0.89174549  0.27345575  0.36175676     0.08100
H1681       H  0.86162312  0.27732967  0.32824066     0.11600
H1682       H  0.83561251  0.20246752  0.34247639     0.11800
H1683       H  0.86705076  0.19772447  0.37507725     0.08100
C1684       C  0.89568801  0.21830981  0.41321229    -0.11000
C1685       C  0.91301074  0.21671823  0.43270579    -0.10300
C1686       C  0.93532575  0.23046213  0.43188449    -0.01200
C1687       C  0.94026009  0.24520445  0.41081274    -0.11400
C1688       C  0.92340489  0.24614061  0.39099362    -0.09800
H1689       H  0.87828681  0.20822889  0.41499440     0.08100
H1690       H  0.90888729  0.20491422  0.44856321     0.11800
H1691       H  0.95739743  0.25586451  0.40959943     0.11600
H1692       H  0.92838804  0.25710446  0.37481293     0.08100
C1693       C  0.11476141  0.25315665  0.64355228    -0.11000
C1694       C  0.11542148  0.23418575  0.62539804     0.06200
C1695       C  0.13356852  0.21536540  0.62774055    -0.09700
C1696       C  0.15082886  0.21576903  0.64725189    -0.11400
C1697       C  0.15075223  0.23522752  0.66477656    -0.01200
C1698       C  0.13232545  0.25377563  0.66287679    -0.10300
C1699       C  0.09772542  0.23420037  0.60384289     0.06200
H1700       H  0.13512082  0.20069275  0.61399661     0.08100
H1701       H  0.16495273  0.20135564  0.64793287     0.11600
H1702       H  0.13174925  0.26905496  0.67606263     0.11800
H1703       H  0.10077522  0.26767467  0.64280887     0.08100
C1704       C  0.08962649  0.21157767  0.59314199    -0.11000
C1705       C  0.07341168  0.21151230  0.57274437    -0.10300
C1706       C  0.06458259  0.23400186  0.56283060    -0.01200
C1707       C  0.07245985  0.25663397  0.57328163    -0.11400
C1708       C  0.08901968  0.25676367  0.59347338    -0.09800
H1709       H  0.09535789  0.19381026  0.60080479     0.08100
H1710       H  0.06714836  0.19388141  0.56509315     0.11800
H1711       H  0.06560267  0.27415767  0.56592510     0.11600
H1712       H  0.09511005  0.27457314  0.60078133     0.08100
C1713       C  0.88129088  0.25380372  0.64056223    -0.11000
C1714       C  0.88170305  0.23414453  0.62316056     0.06200
C1715       C  0.86386232  0.21499323  0.62550482    -0.09700
C1716       C  0.84580806  0.21578838  0.64428529    -0.11400
C1717       C  0.84490099  0.23588712  0.66110535    -0.01200
C1718       C  0.86304765  0.25474057  0.65917945    -0.10300
C1719       C  0.90020157  0.23391624  0.60234143     0.06200
H1720       H  0.86326012  0.19972225  0.61233317     0.08100
H1721       H  0.83202556  0.20101732  0.64507797     0.11600
H1722       H  0.86297028  0.27044628  0.67186645     0.11800
H1723       H  0.89503028  0.26859621  0.63979546     0.08100
C1724       C  0.90821268  0.25637871  0.59121703    -0.11000
C1725       C  0.92551738  0.25618734  0.57172507    -0.10300
C1726       C  0.93490098  0.23355834  0.56269810    -0.01200
C1727       C  0.92684568  0.21109938  0.57342424    -0.11400
C1728       C  0.90980275  0.21125900  0.59313859    -0.09800
H1729       H  0.90093579  0.27416049  0.59736177     0.08100
H1730       H  0.93164666  0.27368842  0.56367593     0.11800
H1731       H  0.93416771  0.19347762  0.56681982     0.11600
H1732       H  0.90450696  0.19361783  0.60141904     0.08100
C1733       C  0.09426248  0.20692281  0.40674437    -0.11000
C1734       C  0.09711375  0.22853841  0.39202131     0.06200
C1735       C  0.08260870  0.24964932  0.39777435    -0.09700
C1736       C  0.06579700  0.24916185  0.41764700    -0.11400
C1737       C  0.06330618  0.22770746  0.43235908    -0.01200
C1738       C  0.07758272  0.20656204  0.42679896    -0.10300
C1739       C  0.11563133  0.22941016  0.37128701     0.06200
H1740       H  0.08453783  0.26675806  0.38722324     0.08100
H1741       H  0.05475614  0.26558517  0.42166014     0.11600
H1742       H  0.07557734  0.18973918  0.43781191     0.11800
H1743       H  0.10473610  0.19017621  0.40264344     0.08100
C1744       C  0.13863753  0.21700697  0.37344414    -0.11000
C1745       C  0.15668924  0.21909411  0.35477734    -0.10300
C1746       C  0.15230696  0.23377273  0.33349401    -0.01200
C1747       C  0.12908121  0.24566005  0.33097854    -0.11400
C1748       C  0.11094261  0.24342270  0.34958016    -0.09800
H1749       H  0.14312988  0.20635760  0.38998689     0.08100
H1750       H  0.17441238  0.20979378  0.35743396     0.11800
H1751       H  0.12505631  0.25711307  0.31484062     0.11600
H1752       H  0.09328650  0.25284564  0.34699295     0.08100
loop_ 
_geom_bond_atom_site_label_1 
_geom_bond_atom_site_label_2 
_geom_bond_distance 
_geom_bond_site_symmetry_2 
_ccdc_geom_bond_type 
N1            C6   1.354       .  A
N1            C5   1.354   1_655  A
N1           H33   1.036       .  S
N2            C9   1.352       .  A
N2           C10   1.352       .  A
N3            C8   1.354       .  A
N3            C7   1.354   1_655  A
N3           H34   1.039       .  S
N4           C11   1.352       .  A
N4           C12   1.353       .  A
C5           C13   1.387       .  A
C5           C21   1.417       .  A
C6           C22   1.417       .  A
C6           C14   1.387       .  A
C7           C15   1.386       .  A
C7           C24   1.413       .  A
C8           C23   1.418       .  A
C8           C16   1.388       .  A
C9           C21   1.415       .  A
C9           C17   1.387       .  A
C10          C24   1.413       .  A
C10          C18   1.386       .  A
C11          C19   1.385       .  A
C11          C22   1.414       .  A
C12          C20   1.387       .  A
C12          C23   1.418       .  A
C13          C14   1.372   1_455  A
C13          H25   1.082       .  S
C14          H26   1.082       .  S
C15          C16   1.374   1_455  A
C15          H27   1.082       .  S
C16          H28   1.082       .  S
C17          C18   1.375       .  A
C17          H29   1.082       .  S
C18          H30   1.082       .  S
C19          C20   1.374       .  A
C19          H31   1.082       .  S
C20          H32   1.081       .  S
C21        C1706   1.484       .  S
C22        C1726   1.486       .  S
C23        C1686   1.497       .  S
C24        C1737   1.484       .  S
O35         Mg37   2.148       .  S
O35         Mg43   2.159       .  S
O35          C70   1.235       .  S
C36          H75   1.081       .  S
C36          O49   1.235       .  S
C36          O73   1.269       .  A
Mg37         O66   2.157       .  S
Mg37         O81   2.300       .  S
Mg37         O77   2.278       .  S
Mg37         O48   2.297       .  S
O38         Mg80   2.159       .  S
O38         Mg63   2.151       .  S
O38          C59   1.236       .  S
O39          C70   1.269       .  A
O39         Mg63   2.296       .  S
C40        C1577   1.476       .  S
C40          O42   1.271       .  A
C40          O54   1.275       .  A
O41          C69   1.269       .  A
O41         Mg43   2.294       .  S
O42         Mg74   2.254       .  S
Mg43         O49   2.147       .  S
Mg43         O57   2.264       .  S
Mg43         O45   2.306       .  S
C44        C1637   1.485       .  S
C44          O82   1.272       .  A
C44          O50   1.276       .  A
O45          C52   1.276       .  A
H46          C59   1.081       .  S
C47          H72   1.081       .  S
C47          O61   1.236       .  S
C47          O62   1.271       .  A
O48          C71   1.269       .  A
O49         Mg63   2.159       .  S
O50         Mg80   2.307       .  S
C51        C1597   1.489       .  S
C51          O64   1.274       .  A
C51          O56   1.276       .  A
C52        C1746   1.485       .  S
C52          O79   1.273       .  A
Mg53         O60   2.147       .  S
Mg53         O61   2.156       .  S
Mg53         O54   2.315       .  S
Mg53         O55   2.301       .  S
Mg53         O82   2.263       .  S
O55          C59   1.271       .  A
O56         Mg63   2.313       .  S
O57          C76   1.273       .  A
O58          C78   1.275       .  A
O58         Mg74   2.305       .  S
O60         Mg74   2.147       .  S
O60          C71   1.235       .  S
O61         Mg80   2.155       .  S
O62         Mg74   2.306       .  S
Mg63         O79   2.269       .  S
O64         Mg80   2.277       .  S
H65          C70   1.081       .  S
O66         Mg74   2.137       .  S
O66          C69   1.236       .  S
H67          C69   1.081       .  S
H68          C71   1.081       .  S
O73         Mg80   2.297       .  S
C76        C1626   1.482       .  S
C76          O81   1.276       .  A
O77          C78   1.274       .  A
C78        C1666   1.487       .  S
O83         Mg85   2.156       .  S
O83         Mg91   2.156       .  S
O83         C118   1.237       .  S
C84         H123   1.081       .  S
C84          O97   1.236       .  S
C84         O121   1.271       .  A
Mg85        O114   2.161       .  S
Mg85        O129   2.323       .  S
Mg85        O125   2.285       .  S
Mg85         O96   2.299       .  S
O86        Mg128   2.151       .  S
O86        Mg111   2.136       .  S
O86         C107   1.235       .  S
O87         C118   1.272       .  A
O87        Mg111   2.307       .  S
C88        C1537   1.487       .  S
C88          O90   1.274       .  A
C88         O102   1.276       .  A
O89         C117   1.269       .  A
O89         Mg91   2.298       .  S
O90        Mg122   2.277       .  S
Mg91         O97   2.150       .  S
Mg91        O105   2.263       .  S
Mg91         O93   2.299       .  S
C92        C1486   1.485       .  S
C92         O130   1.275       .  A
C92          O98   1.275       .  A
O93         C100   1.274       .  A
H94         C107   1.081       .  S
C95         H120   1.081       .  S
C95         O109   1.235       .  S
C95         O110   1.269       .  A
O96         C119   1.270       .  A
O97        Mg111   2.152       .  S
O98        Mg128   2.299       .  S
C99        C1566   1.481       .  S
C99         O112   1.271       .  A
C99         O104   1.275       .  A
C100       C1517   1.480       .  S
C100        O127   1.270       .  A
Mg101       O108   2.152       .  S
Mg101       O109   2.160       .  S
Mg101       O102   2.300       .  S
Mg101       O103   2.293       .  S
Mg101       O130   2.278       .  S
O103        C107   1.268       .  A
O104       Mg111   2.306       .  S
O105        C124   1.272       .  A
O106        C126   1.276       .  A
O106       Mg122   2.296       .  S
O108       Mg122   2.160       .  S
O108        C119   1.235       .  S
O109       Mg128   2.135       .  S
O110       Mg122   2.292       .  S
Mg111       O127   2.256       .  S
O112       Mg128   2.259       .  S
H113        C118   1.081       .  S
O114       Mg122   2.150       .  S
O114        C117   1.235       .  S
H115        C117   1.081       .  S
H116        C119   1.081       .  S
O121       Mg128   2.303       .  S
C124       C1717   1.487       .  S
C124        O129   1.278       .  A
O125        C126   1.275       .  A
C126       C1497   1.486       .  S
N131        C136   1.356       .  A
N131        C135   1.357       .  A
N131        H163   1.040       .  S
N132        C139   1.351   1_565  A
N132        C140   1.353       .  A
N133        C138   1.352       .  A
N133        C137   1.353       .  A
N133        H164   1.036       .  S
N134        C141   1.352   1_565  A
N134        C142   1.354       .  A
C135        C143   1.388       .  A
C135        C151   1.423       .  A
C136        C152   1.418       .  A
C136        C144   1.385       .  A
C137        C145   1.387       .  A
C137        C154   1.416       .  A
C138        C153   1.416       .  A
C138        C146   1.388       .  A
C139        C151   1.418       .  A
C139        C147   1.388       .  A
C140        C154   1.414       .  A
C140        C148   1.385       .  A
C141        C149   1.387       .  A
C141        C152   1.415       .  A
C142        C150   1.386       .  A
C142        C153   1.416       .  A
C143        C144   1.377       .  A
C143        H155   1.082       .  S
C144        H156   1.082       .  S
C145        C146   1.372       .  A
C145        H157   1.082       .  S
C146        H158   1.081       .  S
C147        C148   1.371   1_545  A
C147        H159   1.082       .  S
C148        H160   1.082       .  S
C149        C150   1.370   1_545  A
C149        H161   1.082       .  S
C150        H162   1.082       .  S
C151       C1446   1.497       .  S
C152       C1657   1.490       .  S
C153       C1417   1.485       .  S
C154       C1457   1.484       .  S
O165       Mg167   2.146       .  S
O165       Mg173   2.146       .  S
O165        C200   1.234       .  S
C166        H205   1.081       .  S
C166        O179   1.235       .  S
C166        O203   1.269       .  A
Mg167       O196   2.162       .  S
Mg167       O211   2.306       .  S
Mg167       O207   2.253       .  S
Mg167       O178   2.292       .  S
O168       Mg210   2.160       .  S
O168       Mg193   2.155       .  S
O168        C189   1.236       .  S
O169        C200   1.269       .  A
O169       Mg193   2.299       .  S
C170       C1386   1.491       .  S
C170        O172   1.276       .  A
C170        O184   1.278       .  A
O171        C199   1.272       .  A
O171       Mg173   2.306       .  S
O172       Mg204   2.290       .  S
Mg173       O179   2.131       .  S
Mg173       O187   2.253       .  S
Mg173       O175   2.294       .  S
C174       C1337   1.483       .  S
C174        O212   1.272       .  A
C174        O180   1.275       .  A
O175        C182   1.275       .  A
H176        C189   1.081       .  S
C177        H202   1.081       .  S
C177        O191   1.235       .  S
C177        O192   1.270       .  A
O178        C201   1.269       .  A
O179       Mg193   2.167       .  S
O180       Mg210   2.300       .  S
C181       C1397   1.487       .  S
C181        O194   1.273       .  A
C181        O186   1.276       .  A
C182       C1357   1.485       .  S
C182        O209   1.274       .  A
Mg183       O190   2.133       .  S
Mg183       O191   2.156       .  S
Mg183       O184   2.313       .  S
Mg183       O185   2.300       .  S
Mg183       O212   2.262       .  S
O185        C189   1.271       .  A
O186       Mg193   2.316       .  S
O187        C206   1.270       .  A
O188        C208   1.276       .  A
O188       Mg204   2.307       .  S
O190       Mg204   2.155       .  S
O190        C201   1.235       .  S
O191       Mg210   2.154       .  S
O192       Mg204   2.300       .  S
Mg193       O209   2.283       .  S
O194       Mg210   2.267       .  S
H195        C200   1.081       .  S
O196       Mg204   2.159       .  S
O196        C199   1.237       .  S
H197        C199   1.081       .  S
H198        C201   1.081       .  S
O203       Mg210   2.292       .  S
C206       C1466   1.478       .  S
C206        O211   1.275       .  A
O207        C208   1.271       .  A
C208       C1317   1.481       .  S
N213        C218   1.352       .  A
N213        C217   1.355       .  A
N213        H245   1.040       .  S
N214        C221   1.354   1_455  A
N214        C222   1.352       .  A
N215        C220   1.355       .  A
N215        C219   1.354       .  A
N215        H246   1.038       .  S
N216        C223   1.352   1_455  A
N216        C224   1.352       .  A
C217        C225   1.388       .  A
C217        C233   1.415       .  A
C218        C234   1.415       .  A
C218        C226   1.386       .  A
C219        C227   1.388       .  A
C219        C236   1.419       .  A
C220        C235   1.415       .  A
C220        C228   1.386       .  A
C221        C233   1.415       .  A
C221        C229   1.385       .  A
C222        C236   1.417       .  A
C222        C230   1.387       .  A
C223        C231   1.387       .  A
C223        C234   1.416       .  A
C224        C232   1.385       .  A
C224        C235   1.413       .  A
C225        C226   1.372       .  A
C225        H237   1.081       .  S
C226        H238   1.082       .  S
C227        C228   1.375       .  A
C227        H239   1.082       .  S
C228        H240   1.082       .  S
C229        C230   1.375   1_655  A
C229        H241   1.082       .  S
C230        H242   1.082       .  S
C231        C232   1.375   1_655  A
C231        H243   1.082       .  S
C232        H244   1.082       .  S
C233       C1406   1.491       .  S
C234       C1286   1.491       .  S
C235       C1297   1.488       .  S
C236       C1266   1.490       .  S
O247       Mg249   2.153       .  S
O247       Mg255   2.151       .  S
O247        C282   1.236       .  S
C248        H287   1.081       .  S
C248        O261   1.235       .  S
C248        O285   1.270       .  A
Mg249       O278   2.159       .  S
Mg249       O293   2.326       .  S
Mg249       O289   2.268       .  S
Mg249       O260   2.297       .  S
O250       Mg292   2.149       .  S
O250       Mg275   2.149       .  S
O250        C271   1.236       .  S
O251        C282   1.270       .  A
O251       Mg275   2.301       .  S
C252       C1157   1.483       .  S
C252        O254   1.274       .  A
C252        O266   1.274       .  A
O253        C281   1.270       .  A
O253       Mg255   2.299       .  S
O254       Mg286   2.276       .  S
Mg255       O261   2.146       .  S
Mg255       O269   2.261       .  S
Mg255       O257   2.298       .  S
C256       C1237   1.482       .  S
C256        O294   1.273       .  A
C256        O262   1.274       .  A
O257        C264   1.275       .  A
H258        C271   1.081       .  S
C259        H284   1.081       .  S
C259        O273   1.235       .  S
C259        O274   1.269       .  A
O260        C283   1.270       .  A
O261       Mg275   2.160       .  S
O262       Mg292   2.304       .  S
C263       C1197   1.478       .  S
C263        O276   1.272       .  A
C263        O268   1.275       .  A
C264       C1306   1.484       .  S
C264        O291   1.273       .  A
Mg265       O272   2.149       .  S
Mg265       O273   2.149       .  S
Mg265       O266   2.294       .  S
Mg265       O267   2.301       .  S
Mg265       O294   2.268       .  S
O267        C271   1.270       .  A
O268       Mg275   2.315       .  S
O269        C288   1.273       .  A
O270        C290   1.276       .  A
O270       Mg286   2.303       .  S
O272       Mg286   2.164       .  S
O272        C283   1.236       .  S
O273       Mg292   2.144       .  S
O274       Mg286   2.297       .  S
Mg275       O291   2.271       .  S
O276       Mg292   2.257       .  S
H277        C282   1.081       .  S
O278       Mg286   2.150       .  S
O278        C281   1.235       .  S
H279        C281   1.081       .  S
H280        C283   1.081       .  S
O285       Mg292   2.299       .  S
C288       C1177   1.484       .  S
C288        O293   1.277       .  A
O289        C290   1.274       .  A
C290       C1217   1.483       .  S
N295        C300   1.352       .  A
N295        C299   1.352       .  A
N295        H327   1.040       .  S
N296        C303   1.353   1_545  A
N296        C304   1.351       .  A
N297        C302   1.354       .  A
N297        C301   1.356       .  A
N297        H328   1.040       .  S
N298        C305   1.352   1_545  A
N298        C306   1.349       .  A
C299        C307   1.387       .  A
C299        C315   1.414       .  A
C300        C316   1.412       .  A
C300        C308   1.386       .  A
C301        C309   1.387       .  A
C301        C318   1.420       .  A
C302        C317   1.417       .  A
C302        C310   1.386       .  A
C303        C315   1.414       .  A
C303        C311   1.386       .  A
C304        C318   1.415       .  A
C304        C312   1.386       .  A
C305        C313   1.386       .  A
C305        C316   1.412       .  A
C306        C314   1.387       .  A
C306        C317   1.411       .  A
C307        C308   1.375       .  A
C307        H319   1.082       .  S
C308        H320   1.082       .  S
C309        C310   1.379       .  A
C309        H321   1.082       .  S
C310        H322   1.082       .  S
C311        C312   1.374   1_565  A
C311        H323   1.082       .  S
C312        H324   1.082       .  S
C313        C314   1.373   1_565  A
C313        H325   1.082       .  S
C314        H326   1.082       .  S
C315       C1246   1.492       .  S
C316       C1146   1.488       .  S
C317       C1557   1.482       .  S
C318       C1126   1.497       .  S
N329        C334   1.355   1_554  A
N329        C333   1.355       .  A
N329        H361   1.037       .  S
N330        C337   1.351       .  A
N330        C338   1.353       .  A
N331        C336   1.352   1_554  A
N331        C335   1.352       .  A
N331        H362   1.038       .  S
N332        C339   1.351       .  A
N332        C340   1.353       .  A
C333        C341   1.388       .  A
C333        C349   1.421       .  A
C334        C350   1.418       .  A
C334        C342   1.386       .  A
C335        C343   1.386       .  A
C335        C352   1.411       .  A
C336        C351   1.414       .  A
C336        C344   1.388       .  A
C337        C349   1.417       .  A
C337        C345   1.388       .  A
C338        C352   1.411       .  A
C338        C346   1.384       .  A
C339        C347   1.387       .  A
C339        C350   1.414       .  A
C340        C348   1.386       .  A
C340        C351   1.413       .  A
C341        C342   1.376   1_554  A
C341        H353   1.082       .  S
C342        H354   1.082       .  S
C343        C344   1.374   1_554  A
C343        H355   1.082       .  S
C344        H356   1.082       .  S
C345        C346   1.372       .  A
C345        H357   1.082       .  S
C346        H358   1.082       .  S
C347        C348   1.372       .  A
C347        H359   1.082       .  S
C348        H360   1.082       .  S
C349       C1106   1.492       .  S
C350       C1226   1.487       .  S
C351       C1077   1.486       .  S
C352       C1646   1.483       .  S
N363        C368   1.353   1_556  A
N363        C367   1.353       .  A
N363        H395   1.038       .  S
N364        C371   1.355       .  A
N364        C372   1.352       .  A
N365        C370   1.357   1_556  A
N365        C369   1.355       .  A
N365        H396   1.038       .  S
N366        C373   1.351       .  A
N366        C374   1.351       .  A
C367        C375   1.386       .  A
C367        C383   1.414       .  A
C368        C384   1.415       .  A
C368        C376   1.388       .  A
C369        C377   1.388       .  A
C369        C386   1.423       .  A
C370        C385   1.419       .  A
C370        C378   1.386       .  A
C371        C383   1.413       .  A
C371        C379   1.383       .  A
C372        C386   1.420       .  A
C372        C380   1.389       .  A
C373        C381   1.386       .  A
C373        C384   1.412       .  A
C374        C382   1.387       .  A
C374        C385   1.414       .  A
C375        C376   1.373   1_556  A
C375        H387   1.082       .  S
C376        H388   1.082       .  S
C377        C378   1.378   1_556  A
C377        H389   1.082       .  S
C378        H390   1.082       .  S
C379        C380   1.373       .  A
C379        H391   1.082       .  S
C380        H392   1.082       .  S
C381        C382   1.372       .  A
C381        H393   1.082       .  S
C382        H394   1.082       .  S
C383       C1546   1.489       .  S
C384       C1046   1.480       .  S
C385       C1377   1.489       .  S
C386       C1057   1.496       .  S
O397       Mg399   2.145       .  S
O397       Mg405   2.152       .  S
O397        C432   1.235       .  S
C398        H437   1.081       .  S
C398        O411   1.234       .  S
C398        O435   1.267       .  A
Mg399       O428   2.151       .  S
Mg399       O443   2.306       .  S
Mg399       O439   2.258       .  S
Mg399       O410   2.301       .  S
O400       Mg442   2.166       .  S
O400       Mg425   2.143       .  S
O400        C421   1.236       .  S
O401        C432   1.269       .  A
O401       Mg425   2.295       .  S
C402       C1277   1.479       .  S
C402        O404   1.271       .  A
C402        O416   1.276       .  A
O403        C431   1.270       .  A
O403       Mg405   2.299       .  S
O404       Mg436   2.254       .  S
Mg405       O411   2.136       .  S
Mg405       O419   2.251       .  S
Mg405       O407   2.296       .  S
C406       C1006   1.480       .  S
C406        O444   1.272       .  A
C406        O412   1.275       .  A
O407        C414   1.275       .  A
H408        C421   1.081       .  S
C409        H434   1.081       .  S
C409        O423   1.235       .  S
C409        O424   1.270       .  A
O410        C433   1.270       .  A
O411       Mg425   2.161       .  S
O412       Mg442   2.298       .  S
C413       C1066   1.484       .  S
C413        O426   1.275       .  A
C413        O418   1.275       .  A
C414        C977   1.484       .  S
C414        O441   1.273       .  A
Mg415       O422   2.152       .  S
Mg415       O423   2.160       .  S
Mg415       O416   2.316       .  S
Mg415       O417   2.296       .  S
Mg415       O444   2.258       .  S
O417        C421   1.270       .  A
O418       Mg425   2.296       .  S
O419        C438   1.272       .  A
O420        C440   1.276       .  A
O420       Mg436   2.314       .  S
O422       Mg436   2.152       .  S
O422        C433   1.236       .  S
O423       Mg442   2.157       .  S
O424       Mg436   2.305       .  S
Mg425       O441   2.273       .  S
O426       Mg442   2.287       .  S
H427        C432   1.081       .  S
O428       Mg436   2.139       .  S
O428        C431   1.235       .  S
H429        C431   1.081       .  S
H430        C433   1.081       .  S
O435       Mg442   2.288       .  S
C438       C1137   1.476       .  S
C438        O443   1.274       .  A
O439        C440   1.272       .  A
C440       C1026   1.486       .  S
N445        C450   1.355       .  A
N445        C449   1.355       .  A
N445        H477   1.038       .  S
N446        C453   1.352   1_545  A
N446        C454   1.354       .  A
N447        C452   1.353       .  A
N447        C451   1.352       .  A
N447        H478   1.037       .  S
N448        C455   1.351   1_545  A
N448        C456   1.352       .  A
C449        C457   1.388       .  A
C449        C465   1.420       .  A
C450        C466   1.416       .  A
C450        C458   1.386       .  A
C451        C459   1.386       .  A
C451        C468   1.412       .  A
C452        C467   1.415       .  A
C452        C460   1.389       .  A
C453        C465   1.418       .  A
C453        C461   1.388       .  A
C454        C468   1.413       .  A
C454        C462   1.384       .  A
C455        C463   1.387       .  A
C455        C466   1.413       .  A
C456        C464   1.386       .  A
C456        C467   1.413       .  A
C457        C458   1.376       .  A
C457        H469   1.082       .  S
C458        H470   1.082       .  S
C459        C460   1.372       .  A
C459        H471   1.082       .  S
C460        H472   1.081       .  S
C461        C462   1.372   1_565  A
C461        H473   1.082       .  S
C462        H474   1.082       .  S
C463        C464   1.372   1_565  A
C463        H475   1.082       .  S
C464        H476   1.082       .  S
C465       C1366   1.493       .  S
C466       C1017   1.484       .  S
C467       C1526   1.482       .  S
C468        C957   1.485       .  S
O479       Mg481   2.157       .  S
O479       Mg487   2.161       .  S
O479        C514   1.236       .  S
C480        H519   1.081       .  S
C480        O493   1.235       .  S
C480        O517   1.269       .  A
Mg481       O510   2.155       .  S
Mg481       O525   2.305       .  S
Mg481       O521   2.284       .  S
Mg481       O492   2.300       .  S
O482       Mg524   2.152       .  S
O482       Mg507   2.145       .  S
O482        C503   1.235       .  S
O483        C514   1.271       .  A
O483       Mg507   2.303       .  S
C484       C1677   1.479       .  S
C484        O486   1.274       .  A
C484        O498   1.274       .  A
O485        C513   1.270       .  A
O485       Mg487   2.301       .  S
O486       Mg518   2.271       .  S
Mg487       O493   2.144       .  S
Mg487       O501   2.257       .  S
Mg487       O489   2.302       .  S
C488        C966   1.486       .  S
C488        O526   1.273       .  A
C488        O494   1.275       .  A
O489        C496   1.275       .  A
H490        C503   1.081       .  S
C491        H516   1.081       .  S
C491        O505   1.235       .  S
C491        O506   1.270       .  A
O492        C515   1.270       .  A
O493       Mg507   2.155       .  S
O494       Mg524   2.304       .  S
C495       C1437   1.479       .  S
C495        O508   1.272       .  A
C495        O500   1.276       .  A
C496        C926   1.483       .  S
C496        O523   1.271       .  A
Mg497       O504   2.159       .  S
Mg497       O505   2.160       .  S
Mg497       O498   2.301       .  S
Mg497       O499   2.295       .  S
Mg497       O526   2.273       .  S
O499        C503   1.269       .  A
O500       Mg507   2.316       .  S
O501        C520   1.271       .  A
O502        C522   1.278       .  A
O502       Mg518   2.319       .  S
O504       Mg518   2.156       .  S
O504        C515   1.235       .  S
O505       Mg524   2.141       .  S
O506       Mg518   2.298       .  S
Mg507       O523   2.261       .  S
O508       Mg524   2.251       .  S
H509        C514   1.081       .  S
O510       Mg518   2.150       .  S
O510        C513   1.235       .  S
H511        C513   1.081       .  S
H512        C515   1.081       .  S
O517       Mg524   2.300       .  S
C520       C1037   1.482       .  S
C520        O525   1.276       .  A
O521        C522   1.275       .  A
C522        C946   1.491       .  S
N527        C532   1.351       .  A
N527        C531   1.353   1_455  A
N527        H559   1.048       .  S
N528        C535   1.352       .  A
N528        C536   1.351       .  A
N529        C534   1.354   1_655  A
N529        C533   1.353       .  A
N529        H560   1.052   1_655  S
N530        C537   1.353       .  A
N530        C538   1.353       .  A
C531        C539   1.386       .  A
C531        C547   1.415       .  A
C532        C548   1.416       .  A
C532        C540   1.389       .  A
C533        C541   1.387       .  A
C533        C550   1.418       .  A
C534        C549   1.418       .  A
C534        C542   1.387       .  A
C535        C547   1.413       .  A
C535        C543   1.386       .  A
C536        C550   1.412       .  A
C536        C544   1.386       .  A
C537        C545   1.386       .  A
C537        C548   1.416       .  A
C538        C546   1.387       .  A
C538        C549   1.416       .  A
C539        C540   1.375   1_655  A
C539        H551   1.083       .  S
C540        H552   1.081       .  S
C541        C542   1.378   1_655  A
C541        H553   1.083       .  S
C542        H554   1.083       .  S
C543        C544   1.373       .  A
C543        H555   1.082       .  S
C544        H556   1.082       .  S
C545        C546   1.374       .  A
C545        H557   1.082       .  S
C546        H558   1.082       .  S
C547       C1346   1.490       .  S
C548        C897   1.486       .  S
C549       C1606   1.491       .  S
C550        C937   1.488       .  S
O561       Mg563   2.146       .  S
O561       Mg569   2.155       .  S
O561        C596   1.235       .  S
C562        H601   1.081       .  S
C562        O575   1.235       .  S
C562        O599   1.269       .  A
Mg563       O592   2.166       .  S
Mg563       O607   2.307       .  S
Mg563       O603   2.266       .  S
Mg563       O574   2.293       .  S
O564       Mg606   2.160       .  S
O564       Mg589   2.147       .  S
O564        C585   1.236       .  S
O565        C596   1.269       .  A
O565       Mg589   2.297       .  S
C566        C877   1.486       .  S
C566        O568   1.274       .  A
C566        O580   1.277       .  A
O567        C595   1.269       .  A
O567       Mg569   2.295       .  S
O568       Mg600   2.272       .  S
Mg569       O575   2.144       .  S
Mg569       O583   2.260       .  S
Mg569       O571   2.271       .  S
C570       C1426   1.483       .  S
C570        O608   1.273       .  A
C570        O576   1.276       .  A
O571        C578   1.272       .  A
H572        C585   1.081       .  S
C573        H598   1.081       .  S
C573        O587   1.235       .  S
C573        O588   1.270       .  A
O574        C597   1.268       .  A
O575       Mg589   2.166       .  S
O576       Mg606   2.307       .  S
C577        C857   1.484       .  S
C577        O590   1.274       .  A
C577        O582   1.276       .  A
C578       C1097   1.481       .  S
C578        O605   1.274       .  A
Mg579       O586   2.146       .  S
Mg579       O587   2.151       .  S
Mg579       O580   2.317       .  S
Mg579       O581   2.301       .  S
Mg579       O608   2.262       .  S
O581        C585   1.271       .  A
O582       Mg589   2.304       .  S
O583        C602   1.271       .  A
O584        C604   1.277       .  A
O584       Mg600   2.309       .  S
O586       Mg600   2.157       .  S
O586        C597   1.235       .  S
O587       Mg606   2.151       .  S
O588       Mg600   2.302       .  S
Mg589       O605   2.285       .  S
O590       Mg606   2.272       .  S
H591        C596   1.081       .  S
O592       Mg600   2.145       .  S
O592        C595   1.235       .  S
H593        C595   1.081       .  S
H594        C597   1.081       .  S
O599       Mg606   2.296       .  S
C602        C906   1.483       .  S
C602        O607   1.275       .  A
O603        C604   1.273       .  A
C604       C1257   1.484       .  S
N609        C614   1.351       .  A
N609        C613   1.352       .  A
N609        H641   1.040       .  S
N610        C617   1.353       .  A
N610        C618   1.350   1_545  A
N611        C616   1.355       .  A
N611        C615   1.356       .  A
N611        H642   1.040       .  S
N612        C619   1.352   1_565  A
N612        C620   1.351       .  A
C613        C621   1.388       .  A
C613        C629   1.413       .  A
C614        C630   1.409       .  A
C614        C622   1.386       .  A
C615        C623   1.389       .  A
C615        C632   1.422       .  A
C616        C631   1.417       .  A
C616        C624   1.385       .  A
C617        C629   1.413       .  A
C617        C625   1.385       .  A
C618        C632   1.417       .  A
C618        C626   1.388       .  A
C619        C627   1.385       .  A
C619        C630   1.410       .  A
C620        C628   1.387       .  A
C620        C631   1.412       .  A
C621        C622   1.374       .  A
C621        H633   1.082       .  S
C622        H634   1.082       .  S
C623        C624   1.379       .  A
C623        H635   1.082       .  S
C624        H636   1.082       .  S
C625        C626   1.374   1_545  A
C625        H637   1.082       .  S
C626        H638   1.082       .  S
C627        C628   1.373   1_545  A
C627        H639   1.082       .  S
C628        H640   1.082       .  S
C629        C837   1.491       .  S
C630       C1617   1.481       .  S
C631        C886   1.486       .  S
C632       C1206   1.494       .  S
O643       Mg645   2.162       .  S
O643       Mg651   2.162       .  S
O643        C678   1.236       .  S
C644        H683   1.081       .  S
C644        O657   1.234       .  S
C644        O681   1.268       .  A
Mg645       O674   2.163       .  S
Mg645       O689   2.313       .  S
Mg645       O685   2.286       .  S
Mg645       O656   2.298       .  S
O646       Mg688   2.155       .  S
O646       Mg671   2.133       .  S
O646        C667   1.235       .  S
O647        C678   1.271       .  A
O647       Mg671   2.301       .  S
C648        C846   1.484       .  S
C648        O650   1.274       .  A
C648        O662   1.274       .  A
O649        C677   1.269       .  A
O649       Mg651   2.295       .  S
O650       Mg682   2.279       .  S
Mg651       O657   2.143       .  S
Mg651       O665   2.250       .  S
Mg651       O653   2.287       .  S
C652       C1697   1.484       .  S
C652        O690   1.272       .  A
C652        O658   1.275       .  A
O653        C660   1.273       .  A
H654        C667   1.081       .  S
C655        H680   1.081       .  S
C655        O669   1.236       .  S
C655        O670   1.271       .  A
O656        C679   1.269       .  A
O657       Mg671   2.158       .  S
O658       Mg688   2.303       .  S
C659        C817   1.485       .  S
C659        O672   1.274       .  A
C659        O664   1.275       .  A
C660       C1086   1.481       .  S
C660        O687   1.271       .  A
Mg661       O668   2.155       .  S
Mg661       O669   2.160       .  S
Mg661       O662   2.286       .  S
Mg661       O663   2.295       .  S
Mg661       O690   2.265       .  S
O663        C667   1.269       .  A
O664       Mg671   2.298       .  S
O665        C684   1.271       .  A
O666        C686   1.279       .  A
O666       Mg682   2.322       .  S
O668       Mg682   2.162       .  S
O668        C679   1.234       .  S
O669       Mg688   2.160       .  S
O670       Mg682   2.305       .  S
Mg671       O687   2.263       .  S
O672       Mg688   2.281       .  S
H673        C678   1.081       .  S
O674       Mg682   2.140       .  S
O674        C677   1.235       .  S
H675        C677   1.081       .  S
H676        C679   1.081       .  S
O681       Mg688   2.298       .  S
C684        C797   1.482       .  S
C684        O689   1.276       .  A
O685        C686   1.275       .  A
C686       C1117   1.491       .  S
N691        C696   1.354   1_655  A
N691        C695   1.357       .  A
N691        H723   1.038       .  S
N692        C699   1.350       .  A
N692        C700   1.350       .  A
N693        C698   1.352   1_655  A
N693        C697   1.351       .  A
N693        H724   1.039       .  S
N694        C701   1.351       .  A
N694        C702   1.355       .  A
C695        C703   1.387       .  A
C695        C711   1.421       .  A
C696        C712   1.419       .  A
C696        C704   1.388       .  A
C697        C705   1.387       .  A
C697        C714   1.410       .  A
C698        C713   1.415       .  A
C698        C706   1.387       .  A
C699        C711   1.414       .  A
C699        C707   1.387       .  A
C700        C714   1.409       .  A
C700        C708   1.385       .  A
C701        C709   1.388       .  A
C701        C712   1.416       .  A
C702        C710   1.385       .  A
C702        C713   1.416       .  A
C703        C704   1.378   1_655  A
C703        H715   1.082       .  S
C704        H716   1.082       .  S
C705        C706   1.374   1_655  A
C705        H717   1.082       .  S
C706        H718   1.082       .  S
C707        C708   1.372       .  A
C707        H719   1.082       .  S
C708        H720   1.082       .  S
C709        C710   1.374       .  A
C709        H721   1.082       .  S
C710        H722   1.082       .  S
C711       C1506   1.495       .  S
C712        C826   1.484       .  S
C713       C1186   1.496       .  S
C714        C997   1.476       .  S
N725        C730   1.353       .  A
N725        C729   1.352       .  A
N725        H757   1.039       .  S
N726        C733   1.352   1_556  A
N726        C734   1.351       .  A
N727        C732   1.352       .  A
N727        C731   1.353       .  A
N727        H758   1.039       .  S
N728        C735   1.351   1_556  A
N728        C736   1.351       .  A
C729        C737   1.387       .  A
C729        C745   1.416       .  A
C730        C746   1.413       .  A
C730        C738   1.387       .  A
C731        C739   1.387       .  A
C731        C748   1.413       .  A
C732        C747   1.414       .  A
C732        C740   1.387       .  A
C733        C745   1.415       .  A
C733        C741   1.387       .  A
C734        C748   1.413       .  A
C734        C742   1.386       .  A
C735        C743   1.386       .  A
C735        C746   1.411       .  A
C736        C744   1.386       .  A
C736        C747   1.414       .  A
C737        C738   1.375       .  A
C737        H749   1.082       .  S
C738        H750   1.082       .  S
C739        C740   1.374       .  A
C739        H751   1.082       .  S
C740        H752   1.082       .  S
C741        C742   1.375   1_554  A
C741        H753   1.082       .  S
C742        H754   1.082       .  S
C743        C744   1.375   1_554  A
C743        H755   1.082       .  S
C744        H756   1.082       .  S
C745       C1586   1.491       .  S
C746        C917   1.481       .  S
C747       C1477   1.488       .  S
C748        C806   1.482       .  S
N759        C764   1.352   1_554  A
N759        C763   1.353       .  A
N759        H791   1.040   1_554  S
N760        C767   1.352       .  A
N760        C768   1.351       .  A
N761        C766   1.353   1_554  A
N761        C765   1.353       .  A
N761        H792   1.040       .  S
N762        C769   1.351       .  A
N762        C770   1.351       .  A
C763        C771   1.387       .  A
C763        C779   1.415       .  A
C764        C780   1.413       .  A
C764        C772   1.387       .  A
C765        C773   1.388       .  A
C765        C782   1.415       .  A
C766        C781   1.413       .  A
C766        C774   1.386       .  A
C767        C779   1.413       .  A
C767        C775   1.386       .  A
C768        C782   1.413       .  A
C768        C776   1.386       .  A
C769        C777   1.386       .  A
C769        C780   1.412       .  A
C770        C778   1.386       .  A
C770        C781   1.412       .  A
C771        C772   1.374   1_554  A
C771        H783   1.082       .  S
C772        H784   1.082       .  S
C773        C774   1.374   1_554  A
C773        H785   1.082       .  S
C774        H786   1.082       .  S
C775        C776   1.374       .  A
C775        H787   1.082       .  S
C776        H788   1.082       .  S
C777        C778   1.376       .  A
C777        H789   1.082       .  S
C778        H790   1.082       .  S
C779        C866   1.491       .  S
C780       C1166   1.481       .  S
C781        C986   1.485       .  S
C782       C1326   1.489       .  S
C793        C794   1.409       .  A
C793        C798   1.400       .  A
C793        H803   1.082       .  S
C794        C795   1.406       .  A
C794        C799   1.492       .  S
C795        C796   1.396       .  A
C795        H800   1.082       .  S
C796        C797   1.406       .  A
C796        H801   1.083       .  S
C797        C798   1.405       .  A
C798        H802   1.083       .  S
C799        C804   1.408       .  A
C799        C808   1.410       .  A
C804        C805   1.398       .  A
C804        H809   1.082       .  S
C805        C806   1.401       .  A
C805        H810   1.083       .  S
C806        C807   1.401       .  A
C807        C808   1.398       .  A
C807        H811   1.083       .  S
C808        H812   1.082       .  S
C813        C814   1.406       .  A
C813        C818   1.398       .  A
C813        H823   1.083       .  S
C814        C815   1.407       .  A
C814        C819   1.489       .  S
C815        C816   1.400       .  A
C815        H820   1.083       .  S
C816        C817   1.406       .  A
C816        H821   1.083       .  S
C817        C818   1.407       .  A
C818        H822   1.083       .  S
C819        C824   1.409       .  A
C819        C828   1.407       .  A
C824        C825   1.399       .  A
C824        H829   1.083       .  S
C825        C826   1.401       .  A
C825        H830   1.083       .  S
C826        C827   1.401       .  A
C827        C828   1.398       .  A
C827        H831   1.083       .  S
C828        H832   1.083       .  S
C833        C834   1.407       .  A
C833        C838   1.397       .  A
C833        H843   1.082       .  S
C834        C835   1.409       .  A
C834        C839   1.492       .  S
C835        C836   1.400       .  A
C835        H840   1.082       .  S
C836        C837   1.403       .  A
C836        H841   1.083       .  S
C837        C838   1.404       .  A
C838        H842   1.083       .  S
C839        C844   1.409       .  A
C839        C848   1.406       .  A
C844        C845   1.401       .  A
C844        H849   1.082       .  S
C845        C846   1.405       .  A
C845        H850   1.083       .  S
C846        C847   1.407       .  A
C847        C848   1.396       .  A
C847        H851   1.083       .  S
C848        H852   1.082       .  S
C853        C854   1.405       .  A
C853        C858   1.398       .  A
C853        H863   1.083       .  S
C854        C855   1.406       .  A
C854        C859   1.487       .  S
C855        C856   1.400       .  A
C855        H860   1.083       .  S
C856        C857   1.406       .  A
C856        H861   1.083       .  S
C857        C858   1.407       .  A
C858        H862   1.083       .  S
C859        C864   1.407       .  A
C859        C868   1.406       .  A
C864        C865   1.399       .  A
C864        H869   1.083       .  S
C865        C866   1.404       .  A
C865        H870   1.083       .  S
C866        C867   1.405       .  A
C867        C868   1.398       .  A
C867        H871   1.083       .  S
C868        H872   1.083       .  S
C873        C874   1.409       .  A
C873        C878   1.401       .  A
C873        H883   1.082       .  S
C874        C875   1.409       .  A
C874        C879   1.498       .  S
C875        C876   1.400       .  A
C875        H880   1.082       .  S
C876        C877   1.406       .  A
C876        H881   1.083       .  S
C877        C878   1.406       .  A
C878        H882   1.083       .  S
C879        C884   1.411       .  A
C879        C888   1.410       .  A
C884        C885   1.401       .  A
C884        H889   1.082       .  S
C885        C886   1.401       .  A
C885        H890   1.083       .  S
C886        C887   1.401       .  A
C887        C888   1.400       .  A
C887        H891   1.083       .  S
C888        H892   1.082       .  S
C893        C894   1.409       .  A
C893        C898   1.400       .  A
C893        H903   1.082       .  S
C894        C895   1.409       .  A
C894        C899   1.493       .  S
C895        C896   1.397       .  A
C895        H900   1.082       .  S
C896        C897   1.401       .  A
C896        H901   1.083       .  S
C897        C898   1.402       .  A
C898        H902   1.083       .  S
C899        C904   1.407       .  A
C899        C908   1.408       .  A
C904        C905   1.399       .  A
C904        H909   1.082       .  S
C905        C906   1.407       .  A
C905        H910   1.083       .  S
C906        C907   1.405       .  A
C907        C908   1.399       .  A
C907        H911   1.083       .  S
C908        H912   1.082       .  S
C913        C914   1.407       .  A
C913        C918   1.398       .  A
C913        H923   1.083       .  S
C914        C915   1.407       .  A
C914        C919   1.485       .  S
C915        C916   1.398       .  A
C915        H920   1.083       .  S
C916        C917   1.402       .  A
C916        H921   1.083       .  S
C917        C918   1.401       .  A
C918        H922   1.083       .  S
C919        C924   1.405       .  A
C919        C928   1.406       .  A
C924        C925   1.397       .  A
C924        H929   1.083       .  S
C925        C926   1.406       .  A
C925        H930   1.083       .  S
C926        C927   1.407       .  A
C927        C928   1.399       .  A
C927        H931   1.083       .  S
C928        H932   1.083       .  S
C933        C934   1.411       .  A
C933        C938   1.401       .  A
C933        H943   1.082       .  S
C934        C935   1.410       .  A
C934        C939   1.498       .  S
C935        C936   1.400       .  A
C935        H940   1.082       .  S
C936        C937   1.402       .  A
C936        H941   1.083       .  S
C937        C938   1.401       .  A
C938        H942   1.083       .  S
C939        C944   1.408       .  A
C939        C948   1.409       .  A
C944        C945   1.400       .  A
C944        H949   1.082       .  S
C945        C946   1.407       .  A
C945        H950   1.083       .  S
C946        C947   1.407       .  A
C947        C948   1.403       .  A
C947        H951   1.083       .  S
C948        H952   1.082       .  S
C953        C954   1.409       .  A
C953        C958   1.400       .  A
C953        H963   1.083       .  S
C954        C955   1.408       .  A
C954        C959   1.490       .  S
C955        C956   1.397       .  A
C955        H960   1.083       .  S
C956        C957   1.401       .  A
C956        H961   1.083       .  S
C957        C958   1.402       .  A
C958        H962   1.083       .  S
C959        C964   1.406       .  A
C959        C968   1.407       .  A
C964        C965   1.399       .  A
C964        H969   1.083       .  S
C965        C966   1.407       .  A
C965        H970   1.083       .  S
C966        C967   1.406       .  A
C967        C968   1.400       .  A
C967        H971   1.083       .  S
C968        H972   1.083       .  S
C973        C974   1.406       .  A
C973        C978   1.397       .  A
C973        H983   1.082       .  S
C974        C975   1.409       .  A
C974        C979   1.492       .  S
C975        C976   1.401       .  A
C975        H980   1.082       .  S
C976        C977   1.405       .  A
C976        H981   1.083       .  S
C977        C978   1.406       .  A
C978        H982   1.083       .  S
C979        C984   1.410       .  A
C979        C988   1.408       .  A
C984        C985   1.399       .  A
C984        H989   1.082       .  S
C985        C986   1.401       .  A
C985        H990   1.083       .  S
C986        C987   1.402       .  A
C987        C988   1.398       .  A
C987        H991   1.083       .  S
C988        H992   1.082       .  S
C993        C994   1.407       .  A
C993        C998   1.397       .  A
C993       H1003   1.083       .  S
C994        C995   1.407       .  A
C994        C999   1.483       .  S
C995        C996   1.396       .  A
C995       H1000   1.083       .  S
C996        C997   1.400       .  A
C996       H1001   1.083       .  S
C997        C998   1.400       .  A
C998       H1002   1.083       .  S
C999       C1004   1.405       .  A
C999       C1008   1.405       .  A
C1004      C1005   1.396       .  A
C1004      H1009   1.083       .  S
C1005      C1006   1.406       .  A
C1005      H1010   1.083       .  S
C1006      C1007   1.405       .  A
C1007      C1008   1.397       .  A
C1007      H1011   1.083       .  S
C1008      H1012   1.083       .  S
C1013      C1014   1.408       .  A
C1013      C1018   1.397       .  A
C1013      H1023   1.082       .  S
C1014      C1015   1.409       .  A
C1014      C1019   1.491       .  S
C1015      C1016   1.401       .  A
C1015      H1020   1.082       .  S
C1016      C1017   1.402       .  A
C1016      H1021   1.083       .  S
C1017      C1018   1.400       .  A
C1018      H1022   1.083       .  S
C1019      C1024   1.407       .  A
C1019      C1028   1.407       .  A
C1024      C1025   1.397       .  A
C1024      H1029   1.083       .  S
C1025      C1026   1.406       .  A
C1025      H1030   1.083       .  S
C1026      C1027   1.407       .  A
C1027      C1028   1.401       .  A
C1027      H1031   1.083       .  S
C1028      H1032   1.083       .  S
C1033      C1034   1.405       .  A
C1033      C1038   1.398       .  A
C1033      H1043   1.083       .  S
C1034      C1035   1.404       .  A
C1034      C1039   1.483       .  S
C1035      C1036   1.397       .  A
C1035      H1040   1.083       .  S
C1036      C1037   1.406       .  A
C1036      H1041   1.083       .  S
C1037      C1038   1.407       .  A
C1038      H1042   1.083       .  S
C1039      C1044   1.407       .  A
C1039      C1048   1.406       .  A
C1044      C1045   1.398       .  A
C1044      H1049   1.083       .  S
C1045      C1046   1.401       .  A
C1045      H1050   1.083       .  S
C1046      C1047   1.401       .  A
C1047      C1048   1.396       .  A
C1047      H1051   1.083       .  S
C1048      H1052   1.083       .  S
C1053      C1054   1.406       .  A
C1053      C1058   1.400       .  A
C1053      H1063   1.083       .  S
C1054      C1055   1.403       .  A
C1054      C1059   1.482       .  S
C1055      C1056   1.399       .  A
C1055      H1060   1.083       .  S
C1056      C1057   1.408       .  A
C1056      H1061   1.083       .  S
C1057      C1058   1.405       .  A
C1058      H1062   1.083       .  S
C1059      C1064   1.402       .  A
C1059      C1068   1.406       .  A
C1064      C1065   1.397       .  A
C1064      H1069   1.083       .  S
C1065      C1066   1.408       .  A
C1065      H1070   1.083       .  S
C1066      C1067   1.406       .  A
C1067      C1068   1.403       .  A
C1067      H1071   1.083       .  S
C1068      H1072   1.083       .  S
C1073      C1074   1.407       .  A
C1073      C1078   1.395       .  A
C1073      H1083   1.082       .  S
C1074      C1075   1.408       .  A
C1074      C1079   1.489       .  S
C1075      C1076   1.399       .  A
C1075      H1080   1.082       .  S
C1076      C1077   1.403       .  A
C1076      H1081   1.083       .  S
C1077      C1078   1.402       .  A
C1078      H1082   1.083       .  S
C1079      C1084   1.405       .  A
C1079      C1088   1.408       .  A
C1084      C1085   1.394       .  A
C1084      H1089   1.082       .  S
C1085      C1086   1.405       .  A
C1085      H1090   1.083       .  S
C1086      C1087   1.406       .  A
C1087      C1088   1.401       .  A
C1087      H1091   1.083       .  S
C1088      H1092   1.082       .  S
C1093      C1094   1.410       .  A
C1093      C1098   1.401       .  A
C1093      H1103   1.082       .  S
C1094      C1095   1.406       .  A
C1094      C1099   1.493       .  S
C1095      C1096   1.394       .  A
C1095      H1100   1.082       .  S
C1096      C1097   1.407       .  A
C1096      H1101   1.083       .  S
C1097      C1098   1.403       .  A
C1098      H1102   1.083       .  S
C1099      C1104   1.409       .  A
C1099      C1108   1.409       .  A
C1104      C1105   1.399       .  A
C1104      H1109   1.082       .  S
C1105      C1106   1.403       .  A
C1105      H1110   1.083       .  S
C1106      C1107   1.404       .  A
C1107      C1108   1.397       .  A
C1107      H1111   1.083       .  S
C1108      H1112   1.082       .  S
C1113      C1114   1.408       .  A
C1113      C1118   1.398       .  A
C1113      H1123   1.082       .  S
C1114      C1115   1.409       .  A
C1114      C1119   1.499       .  S
C1115      C1116   1.406       .  A
C1115      H1120   1.082       .  S
C1116      C1117   1.408       .  A
C1116      H1121   1.083       .  S
C1117      C1118   1.405       .  A
C1118      H1122   1.083       .  S
C1119      C1124   1.408       .  A
C1119      C1128   1.411       .  A
C1124      C1125   1.397       .  A
C1124      H1129   1.082       .  S
C1125      C1126   1.404       .  A
C1125      H1130   1.083       .  S
C1126      C1127   1.406       .  A
C1127      C1128   1.406       .  A
C1127      H1131   1.083       .  S
C1128      H1132   1.082       .  S
C1133      C1134   1.408       .  A
C1133      C1138   1.392       .  A
C1133      H1143   1.082       .  S
C1134      C1135   1.410       .  A
C1134      C1139   1.494       .  S
C1135      C1136   1.402       .  A
C1135      H1140   1.082       .  S
C1136      C1137   1.405       .  A
C1136      H1141   1.083       .  S
C1137      C1138   1.401       .  A
C1138      H1142   1.083       .  S
C1139      C1144   1.408       .  A
C1139      C1148   1.410       .  A
C1144      C1145   1.392       .  A
C1144      H1149   1.082       .  S
C1145      C1146   1.401       .  A
C1145      H1150   1.084       .  S
C1146      C1147   1.404       .  A
C1147      C1148   1.402       .  A
C1147      H1151   1.083       .  S
C1148      H1152   1.082       .  S
C1153      C1154   1.405       .  A
C1153      C1158   1.397       .  A
C1153      H1163   1.083       .  S
C1154      C1155   1.407       .  A
C1154      C1159   1.487       .  S
C1155      C1156   1.399       .  A
C1155      H1160   1.083       .  S
C1156      C1157   1.405       .  A
C1156      H1161   1.083       .  S
C1157      C1158   1.407       .  A
C1158      H1162   1.083       .  S
C1159      C1164   1.407       .  A
C1159      C1168   1.408       .  A
C1164      C1165   1.397       .  A
C1164      H1169   1.083       .  S
C1165      C1166   1.400       .  A
C1165      H1170   1.083       .  S
C1166      C1167   1.402       .  A
C1167      C1168   1.399       .  A
C1167      H1171   1.083       .  S
C1168      H1172   1.083       .  S
C1173      C1174   1.409       .  A
C1173      C1178   1.396       .  A
C1173      H1183   1.081       .  S
C1174      C1175   1.411       .  A
C1174      C1179   1.500       .  S
C1175      C1176   1.404       .  A
C1175      H1180   1.082       .  S
C1176      C1177   1.405       .  A
C1176      H1181   1.083       .  S
C1177      C1178   1.403       .  A
C1178      H1182   1.083       .  S
C1179      C1184   1.409       .  A
C1179      C1188   1.412       .  A
C1184      C1185   1.395       .  A
C1184      H1189   1.081       .  S
C1185      C1186   1.404       .  A
C1185      H1190   1.083       .  S
C1186      C1187   1.405       .  A
C1187      C1188   1.404       .  A
C1187      H1191   1.083       .  S
C1188      H1192   1.082       .  S
C1193      C1194   1.409       .  A
C1193      C1198   1.395       .  A
C1193      H1203   1.082       .  S
C1194      C1195   1.410       .  A
C1194      C1199   1.495       .  S
C1195      C1196   1.402       .  A
C1195      H1200   1.082       .  S
C1196      C1197   1.404       .  A
C1196      H1201   1.083       .  S
C1197      C1198   1.403       .  A
C1198      H1202   1.083       .  S
C1199      C1204   1.411       .  A
C1199      C1208   1.407       .  A
C1204      C1205   1.403       .  A
C1204      H1209   1.082       .  S
C1205      C1206   1.405       .  A
C1205      H1210   1.083       .  S
C1206      C1207   1.403       .  A
C1207      C1208   1.394       .  A
C1207      H1211   1.083       .  S
C1208      H1212   1.082       .  S
C1213      C1214   1.406       .  A
C1213      C1218   1.399       .  A
C1213      H1223   1.083       .  S
C1214      C1215   1.407       .  A
C1214      C1219   1.489       .  S
C1215      C1216   1.398       .  A
C1215      H1220   1.083       .  S
C1216      C1217   1.405       .  A
C1216      H1221   1.083       .  S
C1217      C1218   1.407       .  A
C1218      H1222   1.083       .  S
C1219      C1224   1.409       .  A
C1219      C1228   1.407       .  A
C1224      C1225   1.401       .  A
C1224      H1229   1.083       .  S
C1225      C1226   1.403       .  A
C1225      H1230   1.083       .  S
C1226      C1227   1.402       .  A
C1227      C1228   1.396       .  A
C1227      H1231   1.083       .  S
C1228      H1232   1.083       .  S
C1233      C1234   1.408       .  A
C1233      C1238   1.401       .  A
C1233      H1243   1.082       .  S
C1234      C1235   1.408       .  A
C1234      C1239   1.494       .  S
C1235      C1236   1.396       .  A
C1235      H1240   1.082       .  S
C1236      C1237   1.404       .  A
C1236      H1241   1.083       .  S
C1237      C1238   1.406       .  A
C1238      H1242   1.083       .  S
C1239      C1244   1.410       .  A
C1239      C1248   1.407       .  A
C1244      C1245   1.402       .  A
C1244      H1249   1.082       .  S
C1245      C1246   1.405       .  A
C1245      H1250   1.083       .  S
C1246      C1247   1.403       .  A
C1247      C1248   1.394       .  A
C1247      H1251   1.083       .  S
C1248      H1252   1.082       .  S
C1253      C1254   1.408       .  A
C1253      C1258   1.401       .  A
C1253      H1263   1.082       .  S
C1254      C1255   1.407       .  A
C1254      C1259   1.493       .  S
C1255      C1256   1.398       .  A
C1255      H1260   1.082       .  S
C1256      C1257   1.406       .  A
C1256      H1261   1.083       .  S
C1257      C1258   1.406       .  A
C1258      H1262   1.083       .  S
C1259      C1264   1.409       .  A
C1259      C1268   1.408       .  A
C1264      C1265   1.400       .  A
C1264      H1269   1.082       .  S
C1265      C1266   1.403       .  A
C1265      H1270   1.083       .  S
C1266      C1267   1.403       .  A
C1267      C1268   1.398       .  A
C1267      H1271   1.083       .  S
C1268      H1272   1.082       .  S
C1273      C1274   1.410       .  A
C1273      C1278   1.399       .  A
C1273      H1283   1.082       .  S
C1274      C1275   1.409       .  A
C1274      C1279   1.496       .  S
C1275      C1276   1.397       .  A
C1275      H1280   1.082       .  S
C1276      C1277   1.404       .  A
C1276      H1281   1.083       .  S
C1277      C1278   1.403       .  A
C1278      H1282   1.083       .  S
C1279      C1284   1.411       .  A
C1279      C1288   1.408       .  A
C1284      C1285   1.399       .  A
C1284      H1289   1.081       .  S
C1285      C1286   1.402       .  A
C1285      H1290   1.083       .  S
C1286      C1287   1.404       .  A
C1287      C1288   1.396       .  A
C1287      H1291   1.083       .  S
C1288      H1292   1.082       .  S
C1293      C1294   1.409       .  A
C1293      C1298   1.400       .  A
C1293      H1303   1.083       .  S
C1294      C1295   1.407       .  A
C1294      C1299   1.491       .  S
C1295      C1296   1.399       .  A
C1295      H1300   1.083       .  S
C1296      C1297   1.403       .  A
C1296      H1301   1.083       .  S
C1297      C1298   1.402       .  A
C1298      H1302   1.083       .  S
C1299      C1304   1.406       .  A
C1299      C1308   1.408       .  A
C1304      C1305   1.397       .  A
C1304      H1309   1.083       .  S
C1305      C1306   1.406       .  A
C1305      H1310   1.083       .  S
C1306      C1307   1.406       .  A
C1307      C1308   1.401       .  A
C1307      H1311   1.083       .  S
C1308      H1312   1.083       .  S
C1313      C1314   1.406       .  A
C1313      C1318   1.398       .  A
C1313      H1323   1.083       .  S
C1314      C1315   1.407       .  A
C1314      C1319   1.488       .  S
C1315      C1316   1.397       .  A
C1315      H1320   1.082       .  S
C1316      C1317   1.405       .  A
C1316      H1321   1.083       .  S
C1317      C1318   1.406       .  A
C1318      H1322   1.083       .  S
C1319      C1324   1.409       .  A
C1319      C1328   1.406       .  A
C1324      C1325   1.398       .  A
C1324      H1329   1.082       .  S
C1325      C1326   1.404       .  A
C1325      H1330   1.083       .  S
C1326      C1327   1.403       .  A
C1327      C1328   1.395       .  A
C1327      H1331   1.083       .  S
C1328      H1332   1.082       .  S
C1333      C1334   1.407       .  A
C1333      C1338   1.400       .  A
C1333      H1343   1.083       .  S
C1334      C1335   1.407       .  A
C1334      C1339   1.490       .  S
C1335      C1336   1.397       .  A
C1335      H1340   1.083       .  S
C1336      C1337   1.406       .  A
C1336      H1341   1.083       .  S
C1337      C1338   1.406       .  A
C1338      H1342   1.083       .  S
C1339      C1344   1.408       .  A
C1339      C1348   1.407       .  A
C1344      C1345   1.400       .  A
C1344      H1349   1.082       .  S
C1345      C1346   1.404       .  A
C1345      H1350   1.083       .  S
C1346      C1347   1.402       .  A
C1347      C1348   1.397       .  A
C1347      H1351   1.083       .  S
C1348      H1352   1.082       .  S
C1353      C1354   1.411       .  A
C1353      C1358   1.404       .  A
C1353      H1363   1.082       .  S
C1354      C1355   1.407       .  A
C1354      C1359   1.497       .  S
C1355      C1356   1.394       .  A
C1355      H1360   1.082       .  S
C1356      C1357   1.405       .  A
C1356      H1361   1.083       .  S
C1357      C1358   1.406       .  A
C1358      H1362   1.083       .  S
C1359      C1364   1.410       .  A
C1359      C1368   1.410       .  A
C1364      C1365   1.401       .  A
C1364      H1369   1.082       .  S
C1365      C1366   1.404       .  A
C1365      H1370   1.083       .  S
C1366      C1367   1.402       .  A
C1367      C1368   1.396       .  A
C1367      H1371   1.083       .  S
C1368      H1372   1.082       .  S
C1373      C1374   1.408       .  A
C1373      C1378   1.400       .  A
C1373      H1383   1.083       .  S
C1374      C1375   1.407       .  A
C1374      C1379   1.490       .  S
C1375      C1376   1.402       .  A
C1375      H1380   1.083       .  S
C1376      C1377   1.405       .  A
C1376      H1381   1.083       .  S
C1377      C1378   1.401       .  A
C1378      H1382   1.083       .  S
C1379      C1384   1.404       .  A
C1379      C1388   1.407       .  A
C1384      C1385   1.398       .  A
C1384      H1389   1.083       .  S
C1385      C1386   1.408       .  A
C1385      H1390   1.083       .  S
C1386      C1387   1.409       .  A
C1387      C1388   1.404       .  A
C1387      H1391   1.083       .  S
C1388      H1392   1.083       .  S
C1393      C1394   1.410       .  A
C1393      C1398   1.403       .  A
C1393      H1403   1.082       .  S
C1394      C1395   1.407       .  A
C1394      C1399   1.498       .  S
C1395      C1396   1.397       .  A
C1395      H1400   1.082       .  S
C1396      C1397   1.405       .  A
C1396      H1401   1.083       .  S
C1397      C1398   1.407       .  A
C1398      H1402   1.083       .  S
C1399      C1404   1.410       .  A
C1399      C1408   1.410       .  A
C1404      C1405   1.401       .  A
C1404      H1409   1.082       .  S
C1405      C1406   1.403       .  A
C1405      H1410   1.083       .  S
C1406      C1407   1.402       .  A
C1407      C1408   1.400       .  A
C1407      H1411   1.083       .  S
C1408      H1412   1.082       .  S
C1413      C1414   1.409       .  A
C1413      C1418   1.400       .  A
C1413      H1423   1.082       .  S
C1414      C1415   1.408       .  A
C1414      C1419   1.490       .  S
C1415      C1416   1.395       .  A
C1415      H1420   1.082       .  S
C1416      C1417   1.400       .  A
C1416      H1421   1.083       .  S
C1417      C1418   1.403       .  A
C1418      H1422   1.083       .  S
C1419      C1424   1.408       .  A
C1419      C1428   1.406       .  A
C1424      C1425   1.398       .  A
C1424      H1429   1.083       .  S
C1425      C1426   1.405       .  A
C1425      H1430   1.083       .  S
C1426      C1427   1.406       .  A
C1427      C1428   1.398       .  A
C1427      H1431   1.083       .  S
C1428      H1432   1.082       .  S
C1433      C1434   1.413       .  A
C1433      C1438   1.403       .  A
C1433      H1443   1.081       .  S
C1434      C1435   1.410       .  A
C1434      C1439   1.502       .  S
C1435      C1436   1.394       .  A
C1435      H1440   1.080       .  S
C1436      C1437   1.402       .  A
C1436      H1441   1.084       .  S
C1437      C1438   1.404       .  A
C1438      H1442   1.083       .  S
C1439      C1444   1.412       .  A
C1439      C1448   1.410       .  A
C1444      C1445   1.402       .  A
C1444      H1449   1.081       .  S
C1445      C1446   1.404       .  A
C1445      H1450   1.083       .  S
C1446      C1447   1.403       .  A
C1447      C1448   1.394       .  A
C1447      H1451   1.083       .  S
C1448      H1452   1.080       .  S
C1453      C1454   1.407       .  A
C1453      C1458   1.398       .  A
C1453      H1463   1.083       .  S
C1454      C1455   1.408       .  A
C1454      C1459   1.487       .  S
C1455      C1456   1.397       .  A
C1455      H1460   1.083       .  S
C1456      C1457   1.401       .  A
C1456      H1461   1.083       .  S
C1457      C1458   1.402       .  A
C1458      H1462   1.083       .  S
C1459      C1464   1.406       .  A
C1459      C1468   1.407       .  A
C1464      C1465   1.397       .  A
C1464      H1469   1.083       .  S
C1465      C1466   1.406       .  A
C1465      H1470   1.083       .  S
C1466      C1467   1.404       .  A
C1467      C1468   1.398       .  A
C1467      H1471   1.083       .  S
C1468      H1472   1.083       .  S
C1473      C1474   1.409       .  A
C1473      C1478   1.398       .  A
C1473      H1483   1.082       .  S
C1474      C1475   1.408       .  A
C1474      C1479   1.491       .  S
C1475      C1476   1.398       .  A
C1475      H1480   1.082       .  S
C1476      C1477   1.404       .  A
C1476      H1481   1.083       .  S
C1477      C1478   1.401       .  A
C1478      H1482   1.083       .  S
C1479      C1484   1.407       .  A
C1479      C1488   1.407       .  A
C1484      C1485   1.398       .  A
C1484      H1489   1.082       .  S
C1485      C1486   1.405       .  A
C1485      H1490   1.083       .  S
C1486      C1487   1.408       .  A
C1487      C1488   1.399       .  A
C1487      H1491   1.083       .  S
C1488      H1492   1.082       .  S
C1493      C1494   1.410       .  A
C1493      C1498   1.404       .  A
C1493      H1503   1.082       .  S
C1494      C1495   1.407       .  A
C1494      C1499   1.498       .  S
C1495      C1496   1.395       .  A
C1495      H1500   1.082       .  S
C1496      C1497   1.405       .  A
C1496      H1501   1.083       .  S
C1497      C1498   1.406       .  A
C1498      H1502   1.083       .  S
C1499      C1504   1.411       .  A
C1499      C1508   1.408       .  A
C1504      C1505   1.404       .  A
C1504      H1509   1.082       .  S
C1505      C1506   1.404       .  A
C1505      H1510   1.083       .  S
C1506      C1507   1.403       .  A
C1507      C1508   1.396       .  A
C1507      H1511   1.083       .  S
C1508      H1512   1.082       .  S
C1513      C1514   1.408       .  A
C1513      C1518   1.399       .  A
C1513      H1523   1.082       .  S
C1514      C1515   1.407       .  A
C1514      C1519   1.490       .  S
C1515      C1516   1.395       .  A
C1515      H1520   1.082       .  S
C1516      C1517   1.404       .  A
C1516      H1521   1.083       .  S
C1517      C1518   1.406       .  A
C1518      H1522   1.083       .  S
C1519      C1524   1.409       .  A
C1519      C1528   1.409       .  A
C1524      C1525   1.395       .  A
C1524      H1529   1.082       .  S
C1525      C1526   1.399       .  A
C1525      H1530   1.083       .  S
C1526      C1527   1.402       .  A
C1527      C1528   1.398       .  A
C1527      H1531   1.083       .  S
C1528      H1532   1.082       .  S
C1533      C1534   1.407       .  A
C1533      C1538   1.402       .  A
C1533      H1543   1.083       .  S
C1534      C1535   1.406       .  A
C1534      C1539   1.491       .  S
C1535      C1536   1.398       .  A
C1535      H1540   1.083       .  S
C1536      C1537   1.407       .  A
C1536      H1541   1.083       .  S
C1537      C1538   1.407       .  A
C1538      H1542   1.083       .  S
C1539      C1544   1.407       .  A
C1539      C1548   1.409       .  A
C1544      C1545   1.400       .  A
C1544      H1549   1.083       .  S
C1545      C1546   1.403       .  A
C1545      H1550   1.083       .  S
C1546      C1547   1.402       .  A
C1547      C1548   1.400       .  A
C1547      H1551   1.083       .  S
C1548      H1552   1.083       .  S
C1553      C1554   1.408       .  A
C1553      C1558   1.397       .  A
C1553      H1563   1.083       .  S
C1554      C1555   1.407       .  A
C1554      C1559   1.488       .  S
C1555      C1556   1.399       .  A
C1555      H1560   1.083       .  S
C1556      C1557   1.402       .  A
C1556      H1561   1.083       .  S
C1557      C1558   1.401       .  A
C1558      H1562   1.083       .  S
C1559      C1564   1.407       .  A
C1559      C1568   1.406       .  A
C1564      C1565   1.398       .  A
C1564      H1569   1.083       .  S
C1565      C1566   1.405       .  A
C1565      H1570   1.083       .  S
C1566      C1567   1.406       .  A
C1567      C1568   1.398       .  A
C1567      H1571   1.083       .  S
C1568      H1572   1.083       .  S
C1573      C1574   1.408       .  A
C1573      C1578   1.397       .  A
C1573      H1583   1.082       .  S
C1574      C1575   1.410       .  A
C1574      C1579   1.495       .  S
C1575      C1576   1.400       .  A
C1575      H1580   1.082       .  S
C1576      C1577   1.402       .  A
C1576      H1581   1.083       .  S
C1577      C1578   1.403       .  A
C1578      H1582   1.083       .  S
C1579      C1584   1.409       .  A
C1579      C1588   1.410       .  A
C1584      C1585   1.396       .  A
C1584      H1589   1.082       .  S
C1585      C1586   1.404       .  A
C1585      H1590   1.083       .  S
C1586      C1587   1.402       .  A
C1587      C1588   1.399       .  A
C1587      H1591   1.083       .  S
C1588      H1592   1.082       .  S
C1593      C1594   1.408       .  A
C1593      C1598   1.400       .  A
C1593      H1603   1.083       .  S
C1594      C1595   1.407       .  A
C1594      C1599   1.496       .  S
C1595      C1596   1.403       .  A
C1595      H1600   1.083       .  S
C1596      C1597   1.409       .  A
C1596      H1601   1.083       .  S
C1597      C1598   1.405       .  A
C1598      H1602   1.083       .  S
C1599      C1604   1.409       .  A
C1599      C1608   1.409       .  A
C1604      C1605   1.404       .  A
C1604      H1609   1.082       .  S
C1605      C1606   1.404       .  A
C1605      H1610   1.083       .  S
C1606      C1607   1.402       .  A
C1607      C1608   1.399       .  A
C1607      H1611   1.083       .  S
C1608      H1612   1.082       .  S
C1613      C1614   1.409       .  A
C1613      C1618   1.396       .  A
C1613      H1623   1.082       .  S
C1614      C1615   1.410       .  A
C1614      C1619   1.493       .  S
C1615      C1616   1.399       .  A
C1615      H1620   1.082       .  S
C1616      C1617   1.400       .  A
C1616      H1621   1.083       .  S
C1617      C1618   1.400       .  A
C1618      H1622   1.083       .  S
C1619      C1624   1.407       .  A
C1619      C1628   1.409       .  A
C1624      C1625   1.397       .  A
C1624      H1629   1.082       .  S
C1625      C1626   1.406       .  A
C1625      H1630   1.083       .  S
C1626      C1627   1.405       .  A
C1627      C1628   1.398       .  A
C1627      H1631   1.083       .  S
C1628      H1632   1.082       .  S
C1633      C1634   1.410       .  A
C1633      C1638   1.400       .  A
C1633      H1643   1.082       .  S
C1634      C1635   1.408       .  A
C1634      C1639   1.496       .  S
C1635      C1636   1.398       .  A
C1635      H1640   1.082       .  S
C1636      C1637   1.405       .  A
C1636      H1641   1.083       .  S
C1637      C1638   1.406       .  A
C1638      H1642   1.083       .  S
C1639      C1644   1.410       .  A
C1639      C1648   1.411       .  A
C1644      C1645   1.398       .  A
C1644      H1649   1.082       .  S
C1645      C1646   1.400       .  A
C1645      H1650   1.083       .  S
C1646      C1647   1.400       .  A
C1647      C1648   1.399       .  A
C1647      H1651   1.083       .  S
C1648      H1652   1.082       .  S
C1653      C1654   1.409       .  A
C1653      C1658   1.403       .  A
C1653      H1663   1.082       .  S
C1654      C1655   1.408       .  A
C1654      C1659   1.493       .  S
C1655      C1656   1.397       .  A
C1655      H1660   1.082       .  S
C1656      C1657   1.402       .  A
C1656      H1661   1.083       .  S
C1657      C1658   1.403       .  A
C1658      H1662   1.083       .  S
C1659      C1664   1.406       .  A
C1659      C1668   1.408       .  A
C1664      C1665   1.400       .  A
C1664      H1669   1.082       .  S
C1665      C1666   1.408       .  A
C1665      H1670   1.083       .  S
C1666      C1667   1.405       .  A
C1667      C1668   1.399       .  A
C1667      H1671   1.083       .  S
C1668      H1672   1.083       .  S
C1673      C1674   1.410       .  A
C1673      C1678   1.401       .  A
C1673      H1683   1.082       .  S
C1674      C1675   1.409       .  A
C1674      C1679   1.496       .  S
C1675      C1676   1.396       .  A
C1675      H1680   1.082       .  S
C1676      C1677   1.402       .  A
C1676      H1681   1.083       .  S
C1677      C1678   1.405       .  A
C1678      H1682   1.083       .  S
C1679      C1684   1.410       .  A
C1679      C1688   1.408       .  A
C1684      C1685   1.401       .  A
C1684      H1689   1.082       .  S
C1685      C1686   1.405       .  A
C1685      H1690   1.083       .  S
C1686      C1687   1.404       .  A
C1687      C1688   1.396       .  A
C1687      H1691   1.083       .  S
C1688      H1692   1.082       .  S
C1693      C1694   1.409       .  A
C1693      C1698   1.401       .  A
C1693      H1703   1.082       .  S
C1694      C1695   1.408       .  A
C1694      C1699   1.495       .  S
C1695      C1696   1.397       .  A
C1695      H1700   1.082       .  S
C1696      C1697   1.405       .  A
C1696      H1701   1.083       .  S
C1697      C1698   1.406       .  A
C1698      H1702   1.083       .  S
C1699      C1704   1.410       .  A
C1699      C1708   1.411       .  A
C1704      C1705   1.397       .  A
C1704      H1709   1.082       .  S
C1705      C1706   1.400       .  A
C1705      H1710   1.083       .  S
C1706      C1707   1.401       .  A
C1707      C1708   1.400       .  A
C1707      H1711   1.083       .  S
C1708      H1712   1.082       .  S
C1713      C1714   1.409       .  A
C1713      C1718   1.400       .  A
C1713      H1723   1.082       .  S
C1714      C1715   1.408       .  A
C1714      C1719   1.495       .  S
C1715      C1716   1.399       .  A
C1715      H1720   1.082       .  S
C1716      C1717   1.407       .  A
C1716      H1721   1.083       .  S
C1717      C1718   1.406       .  A
C1718      H1722   1.083       .  S
C1719      C1724   1.410       .  A
C1719      C1728   1.409       .  A
C1724      C1725   1.399       .  A
C1724      H1729   1.082       .  S
C1725      C1726   1.401       .  A
C1725      H1730   1.083       .  S
C1726      C1727   1.402       .  A
C1727      C1728   1.399       .  A
C1727      H1731   1.083       .  S
C1728      H1732   1.082       .  S
C1733      C1734   1.410       .  A
C1733      C1738   1.400       .  A
C1733      H1743   1.082       .  S
C1734      C1735   1.408       .  A
C1734      C1739   1.493       .  S
C1735      C1736   1.398       .  A
C1735      H1740   1.082       .  S
C1736      C1737   1.401       .  A
C1736      H1741   1.083       .  S
C1737      C1738   1.401       .  A
C1738      H1742   1.083       .  S
C1739      C1744   1.407       .  A
C1739      C1748   1.408       .  A
C1744      C1745   1.398       .  A
C1744      H1749   1.082       .  S
C1745      C1746   1.406       .  A
C1745      H1750   1.083       .  S
C1746      C1747   1.406       .  A
C1747      C1748   1.400       .  A
C1747      H1751   1.083       .  S
C1748      H1752   1.082       .  S
