geometry optimzed in LAMMPS
_audit_creation_date              2020-11-30 
_audit_creation_method            'lammps2cif' 
_symmetry_space_group_name_H-M    'P1' 
_symmetry_Int_Tables_number       1 
_symmetry_cell_setting            triclinic 
loop_ 
_symmetry_equiv_pos_as_xyz 
  x,y,z 
_cell_length_a                    30.54333356 
_cell_length_b                    30.516856940967426 
_cell_length_c                    33.75898687300685 
_cell_angle_alpha                 90.08038271288804 
_cell_angle_beta                  90.09087848789454 
_cell_angle_gamma                 90.77076429004126 
loop_ 
_atom_site_label 
_atom_site_type_symbol 
_atom_site_fract_x 
_atom_site_fract_y 
_atom_site_fract_z 
_atom_site_charge 
N1          N  0.45383772  0.82642287  0.03775450    -0.36200
N2          N  0.54949315  0.83071876  0.03785261    -0.56800
N3          N  0.54936079  0.82597589  0.95289714    -0.36200
N4          N  0.45324132  0.82558771  0.95286313    -0.56800
C5          C  0.46329947  0.84153068  0.07449029     0.27400
C6          C  0.41218045  0.83790463  0.02941105     0.27400
C7          C  0.59097293  0.83961179  0.96044818     0.27400
C8          C  0.53957767  0.83774812  0.91532142     0.27400
C9          C  0.54080404  0.82067359  0.07601943     0.36000
C10         C  0.59157411  0.81969443  0.03120634     0.36000
C11         C  0.41135429  0.81302374  0.96006755     0.36000
C12         C  0.46202382  0.81386186  0.91516359     0.36000
C13         C  0.42769077  0.86350586  0.08963413    -0.21500
C14         C  0.39553743  0.86171979  0.06100971    -0.21500
C15         C  0.60742071  0.86106080  0.92723067    -0.21500
C16         C  0.57510914  0.85944982  0.89867556    -0.21500
C17         C  0.57715355  0.80263199  0.09380771    -0.22500
C18         C  0.60922811  0.80144947  0.06529831    -0.22500
C19         C  0.39389703  0.79223805  0.92686705    -0.22500
C20         C  0.42588867  0.79331238  0.89828346    -0.22500
C21         C  0.50193111  0.83225473  0.09561884    -0.17900
C22         C  0.38859681  0.82407174  0.99520113    -0.17900
C23         C  0.50080019  0.82553114  0.89493730    -0.17900
C24         C  0.61446648  0.83032919  0.99583900    -0.17900
H25         H  0.42510663  0.87898059  0.11839232     0.15000
H26         H  0.36369763  0.87653249  0.06349145     0.15000
H27         H  0.63915227  0.87662145  0.92358533     0.15000
H28         H  0.57759286  0.87247460  0.86894615     0.15000
H29         H  0.58031759  0.79190532  0.12421540     0.13300
H30         H  0.64168020  0.78856389  0.06960387     0.13300
H31         H  0.36172994  0.77762633  0.92316525     0.13300
H32         H  0.42287944  0.78061121  0.86843437     0.13300
H33         H  0.47285524  0.80477581  0.02144433     0.26600
H34         H  0.53041775  0.80526612  0.97066988     0.26600
N35         N  0.53890018  0.82942553  0.45397844    -0.36200
N36         N  0.53704667  0.83008448  0.53890036    -0.56800
N37         N  0.44184936  0.83509197  0.53660842    -0.36200
N38         N  0.44330719  0.83821408  0.45171366    -0.56800
C39         C  0.58106608  0.83943209  0.46311570     0.27400
C40         C  0.53137490  0.84430438  0.41693699     0.27400
C41         C  0.45132367  0.84670496  0.57438539     0.27400
C42         C  0.40148812  0.85030076  0.52811503     0.27400
C43         C  0.57800675  0.81548321  0.53254617     0.36000
C44         C  0.52649011  0.81875997  0.57633664     0.36000
C45         C  0.45240027  0.82693523  0.41392774     0.36000
C46         C  0.40031396  0.82912506  0.45760117     0.36000
C47         C  0.60016472  0.86186518  0.43166105    -0.21500
C48         C  0.56885294  0.86454893  0.40238177    -0.21500
C49         C  0.41705314  0.87021406  0.59012276    -0.21500
C50         C  0.38575998  0.87299099  0.56078424    -0.21500
C51         C  0.59299243  0.79374917  0.56597071    -0.22500
C52         C  0.56047267  0.79637228  0.59388551    -0.22500
C53         C  0.41525792  0.81023140  0.39555816    -0.22500
C54         C  0.38230912  0.81114666  0.42327622    -0.22500
C55         C  0.60260462  0.82587356  0.49820675    -0.17900
C56         C  0.49265636  0.83633071  0.39505146    -0.17900
C57         C  0.37768280  0.84004315  0.49297294    -0.17900
C58         C  0.48825685  0.83238848  0.59571388    -0.17900
H59         H  0.63305139  0.87523225  0.42973791     0.15000
H60         H  0.57321052  0.87949567  0.37357435     0.15000
H61         H  0.41462659  0.88342396  0.61979875     0.15000
H62         H  0.35491957  0.88970672  0.56358249     0.15000
H63         H  0.62390998  0.77755900  0.57020161     0.13300
H64         H  0.56174712  0.78352748  0.62373184     0.13300
H65         H  0.41216073  0.79895830  0.36525491     0.13300
H66         H  0.34924674  0.79946811  0.41818221     0.13300
H67         H  0.51794072  0.80899341  0.47013517     0.26600
H68         H  0.45945521  0.81297029  0.51953688     0.26600
N69         N  0.75078933  0.54253139  0.04448171    -0.36200
N70         N  0.74915195  0.63803813  0.04409229    -0.56800
N71         N  0.75883569  0.63713643  0.95886568    -0.36200
N72         N  0.75705419  0.54191813  0.95960055    -0.56800
C73         C  0.73444252  0.55185314  0.08066533     0.27400
C74         C  0.73887692  0.50072279  0.03579337     0.27400
C75         C  0.74584325  0.67872800  0.96582173     0.27400
C76         C  0.74898163  0.62745968  0.92065224     0.27400
C77         C  0.75672613  0.62967347  0.08281809     0.36000
C78         C  0.76168473  0.68011464  0.03763806     0.36000
C79         C  0.76726753  0.49994144  0.96759568     0.36000
C80         C  0.77009940  0.54969898  0.92208312     0.36000
C81         C  0.71146797  0.51587203  0.09510026    -0.21500
C82         C  0.71391549  0.48365380  0.06662524    -0.21500
C83         C  0.72672357  0.69515804  0.93160028    -0.21500
C84         C  0.72971777  0.66328307  0.90298520    -0.21500
C85         C  0.77460162  0.66628294  0.10117432    -0.22500
C86         C  0.77822908  0.69813983  0.07252002    -0.22500
C87         C  0.78822246  0.48141434  0.93535488    -0.22500
C88         C  0.78909741  0.51261537  0.90621162    -0.22500
C89         C  0.74352239  0.59065606  0.10210792    -0.17900
C90         C  0.75280554  0.47745551  0.00180447    -0.17900
C91         C  0.75974916  0.58802146  0.90105880    -0.17900
C92         C  0.75422712  0.70255426  0.00141732    -0.17900
H93         H  0.69497112  0.51303861  0.12335391     0.15000
H94         H  0.69889435  0.45144631  0.06867788     0.15000
H95         H  0.71165096  0.72660377  0.92716129     0.15000
H96         H  0.71880171  0.66641792  0.87265523     0.15000
H97         H  0.78373292  0.66974296  0.13202354     0.13300
H98         H  0.79178432  0.73060382  0.07729983     0.13300
H99         H  0.80096237  0.44867873  0.93249925     0.13300
H100        H  0.80173229  0.50787732  0.87665792     0.13300
H101        H  0.77326371  0.56174131  0.02891649     0.26600
H102        H  0.77779198  0.61824081  0.97773662     0.26600
N103        N  0.74255635  0.62030564  0.54410255    -0.36200
N104        N  0.72546404  0.61908169  0.46041483    -0.56800
N105        N  0.73803344  0.52367626  0.45886809    -0.36200
N106        N  0.75564757  0.52532724  0.54308899    -0.56800
C107        C  0.72550887  0.66068301  0.53919573     0.27400
C108        C  0.73797006  0.60993022  0.58282358     0.27400
C109        C  0.74026570  0.53341860  0.41968236     0.27400
C110        C  0.75424599  0.48273021  0.46360321     0.27400
C111        C  0.71763835  0.66207661  0.46670375     0.36000
C112        C  0.71560081  0.61107601  0.42203059     0.36000
C113        C  0.76794237  0.53478370  0.58071361     0.36000
C114        C  0.76658797  0.48312787  0.53638527     0.36000
C115        C  0.70900310  0.67554557  0.57494835    -0.21500
C116        C  0.71666056  0.64343351  0.60240118    -0.21500
C117        C  0.75795343  0.49851180  0.39935428    -0.21500
C118        C  0.76697678  0.46684060  0.42679697    -0.21500
C119        C  0.70042667  0.68065201  0.43264303    -0.22500
C120        C  0.69931629  0.64843775  0.40442530    -0.22500
C121        C  0.78863714  0.49924855  0.59740272    -0.22500
C122        C  0.78760404  0.46655581  0.56958033    -0.22500
C123        C  0.72462189  0.68423990  0.50316866    -0.17900
C124        C  0.75618058  0.57303039  0.60164857    -0.17900
C125        C  0.75928883  0.46000402  0.50028146    -0.17900
C126        C  0.72614660  0.57249082  0.40119081    -0.17900
H127        H  0.69174744  0.70559111  0.58070459     0.15000
H128        H  0.70789001  0.64485459  0.63342195     0.15000
H129        H  0.76472960  0.49635603  0.36795695     0.15000
H130        H  0.78379063  0.43691122  0.41987686     0.15000
H131        H  0.68830817  0.71342693  0.42842293     0.13300
H132        H  0.68839953  0.65230987  0.37412422     0.13300
H133        H  0.80245922  0.49679804  0.62684402     0.13300
H134        H  0.80223192  0.43488362  0.57352882     0.13300
H135        H  0.76096400  0.60323554  0.52337016     0.26600
H136        H  0.72293003  0.54244077  0.48051459     0.26600
N137        N  0.45052747  0.32102700  0.04217388    -0.36200
N138        N  0.45271794  0.33659482  0.95793432    -0.56800
N139        N  0.54814344  0.34303946  0.96148639    -0.36200
N140        N  0.54642746  0.33129959  0.04545162    -0.56800
C141        C  0.40836385  0.33179915  0.03443437     0.27400
C142        C  0.45811646  0.32888233  0.08109782     0.27400
C143        C  0.53867181  0.36084349  0.92588349     0.27400
C144        C  0.58843794  0.35781756  0.97211745     0.27400
C145        C  0.41189994  0.31954089  0.96235933     0.36000
C146        C  0.46430387  0.32989710  0.91979161     0.36000
C147        C  0.53798025  0.31583036  0.08213636     0.36000
C148        C  0.58992816  0.32668098  0.03939528     0.36000
C149        C  0.38951313  0.34742464  0.06913144    -0.21500
C150        C  0.42054437  0.34465870  0.09853151    -0.21500
C151        C  0.57276483  0.38826440  0.91413272    -0.21500
C152        C  0.60422761  0.38640364  0.94336551    -0.21500
C153        C  0.39800002  0.30088506  0.92685739    -0.22500
C154        C  0.43122449  0.30750397  0.89993382    -0.22500
C155        C  0.57614747  0.30140305  0.09965251    -0.22500
C156        C  0.60892068  0.30752056  0.07242165    -0.22500
C157        C  0.38671197  0.32466370  0.99738618    -0.17900
C158        C  0.49739949  0.31973970  0.10153772    -0.17900
C159        C  0.61219732  0.34279185  0.00544046    -0.17900
C160        C  0.50224865  0.34852178  0.90229041    -0.17900
H161        H  0.35723626  0.36048938  0.07358515     0.15000
H162        H  0.41594128  0.35380675  0.12920230     0.15000
H163        H  0.57514757  0.40683928  0.88691355     0.15000
H164        H  0.63530887  0.40384591  0.94318853     0.15000
H165        H  0.36751918  0.28380969  0.92067940     0.13300
H166        H  0.43077438  0.29764244  0.86912666     0.13300
H167        H  0.58018516  0.28825891  0.12915771     0.13300
H168        H  0.64264544  0.29885414  0.07725123     0.13300
H169        H  0.47171044  0.30494167  0.02302401     0.26600
H170        H  0.53071213  0.31754817  0.97498851     0.26600
N171        N  0.55641115  0.33159425  0.54525385    -0.36200
N172        N  0.55680768  0.32984920  0.45982314    -0.56800
N173        N  0.46168442  0.33525587  0.45958527    -0.36200
N174        N  0.46127477  0.34081076  0.54469152    -0.56800
C175        C  0.59921623  0.33957740  0.53716290     0.27400
C176        C  0.54857374  0.34654382  0.58229052     0.27400
C177        C  0.47240760  0.34688845  0.42212909     0.27400
C178        C  0.42117501  0.35066171  0.46705014     0.27400
C179        C  0.59697011  0.31404044  0.46787858     0.36000
C180        C  0.54652587  0.31665447  0.42269780     0.36000
C181        C  0.46885102  0.33177493  0.58325966     0.36000
C182        C  0.41852558  0.33132313  0.53783981     0.36000
C183        C  0.61847991  0.36064514  0.56945190    -0.21500
C184        C  0.58676550  0.36419130  0.59811812    -0.21500
C185        C  0.43877270  0.37102735  0.40579661    -0.21500
C186        C  0.40638974  0.37344446  0.43416773    -0.21500
C187        C  0.61183228  0.28978074  0.43590718    -0.22500
C188        C  0.57981761  0.29150335  0.40725439    -0.22500
C189        C  0.43090298  0.31648874  0.60112498    -0.22500
C190        C  0.39930999  0.31517506  0.57223976    -0.22500
C191        C  0.62110965  0.32508482  0.50245125    -0.17900
C192        C  0.50866592  0.34106396  0.60294454    -0.17900
C193        C  0.39672845  0.34115753  0.50180482    -0.17900
C194        C  0.50974056  0.33179720  0.40160147    -0.17900
H195        H  0.65176771  0.37258471  0.57257431     0.15000
H196        H  0.59154352  0.37809054  0.62731857     0.15000
H197        H  0.43734194  0.38469446  0.37626110     0.15000
H198        H  0.37552012  0.39000080  0.43074198     0.15000
H199        H  0.64238893  0.27253027  0.43327006     0.13300
H200        H  0.58124537  0.27671784  0.37813689     0.13300
H201        H  0.42622565  0.30709626  0.63171455     0.13300
H202        H  0.36618279  0.30349673  0.57679364     0.13300
H203        H  0.53496836  0.31243355  0.52831423     0.26600
H204        H  0.47858720  0.31306753  0.47717192     0.26600
N205        N  0.25325412  0.52663405  0.95018150    -0.36200
N206        N  0.25082642  0.62226113  0.95173648    -0.56800
N207        N  0.25835111  0.62009662  0.03674448    -0.36200
N208        N  0.25649804  0.52458921  0.03551672    -0.56800
C209        C  0.23953283  0.53652832  0.91317225     0.27400
C210        C  0.24112693  0.48458872  0.95764273     0.27400
C211        C  0.24412696  0.66130802  0.03038620     0.27400
C212        C  0.24853332  0.60962444  0.07459830     0.27400
C213        C  0.26099280  0.61466973  0.91341830     0.36000
C214        C  0.26253629  0.66433141  0.95943585     0.36000
C215        C  0.26695173  0.48272178  0.02705692     0.36000
C216        C  0.27051395  0.53244911  0.07287608     0.36000
C217        C  0.21795843  0.50067960  0.89681464    -0.21500
C218        C  0.21837779  0.46803940  0.92504700    -0.21500
C219        C  0.22389508  0.67653079  0.06452539    -0.21500
C220        C  0.22732831  0.64409131  0.09258991    -0.21500
C221        C  0.27961818  0.65175923  0.89660265    -0.22500
C222        C  0.28114501  0.68310915  0.92584023    -0.22500
C223        C  0.28856189  0.46434642  0.05917737    -0.22500
C224        C  0.29024236  0.49575157  0.08836314    -0.22500
C225        C  0.25019531  0.57571741  0.89290789    -0.17900
C226        C  0.25360557  0.46062774  0.99191698    -0.17900
C227        C  0.26211375  0.57126051  0.09391834    -0.17900
C228        C  0.25296861  0.68597366  0.99561439    -0.17900
H229        H  0.20377248  0.49821174  0.86748027     0.15000
H230        H  0.20362536  0.43587104  0.92151433     0.15000
H231        H  0.20824524  0.70764587  0.06921547     0.15000
H232        H  0.21575125  0.64573516  0.12283790     0.15000
H233        H  0.29094297  0.65576937  0.86643983     0.13300
H234        H  0.29493775  0.71566357  0.92235538     0.13300
H235        H  0.30215997  0.43194385  0.06165257     0.13300
H236        H  0.30429994  0.49203875  0.11760154     0.13300
H237        H  0.27458246  0.54576739  0.96727077     0.26600
H238        H  0.27863146  0.60222117  0.01809590     0.26600
N239        N  0.25061506  0.63527963  0.45007343    -0.36200
N240        N  0.25106702  0.63617277  0.53526133    -0.56800
N241        N  0.25508393  0.54060146  0.53535067    -0.36200
N242        N  0.25911303  0.53928271  0.45063969    -0.56800
C243        C  0.25929302  0.67813431  0.45770197     0.27400
C244        C  0.26519864  0.62659389  0.41313128     0.27400
C245        C  0.26645166  0.55103332  0.57295450     0.27400
C246        C  0.26928163  0.49951085  0.52821701     0.27400
C247        C  0.23614777  0.67683109  0.52767999     0.36000
C248        C  0.23999219  0.62691923  0.57311392     0.36000
C249        C  0.24861220  0.54711415  0.41245700     0.36000
C250        C  0.24917237  0.49661754  0.45757629     0.36000
C251        C  0.28035344  0.69665887  0.42518883    -0.21500
C252        C  0.28372323  0.66416142  0.39697125    -0.21500
C253        C  0.28877267  0.51664305  0.58992662    -0.21500
C254        C  0.29108892  0.48427636  0.56155618    -0.21500
C255        C  0.21460910  0.69284751  0.56084678    -0.22500
C256        C  0.21774841  0.66147649  0.58978120    -0.22500
C257        C  0.23169278  0.50952475  0.39493415    -0.22500
C258        C  0.23147652  0.47762849  0.42361145    -0.22500
C259        C  0.24600871  0.70052528  0.49253635    -0.17900
C260        C  0.25772835  0.58680191  0.39257357    -0.17900
C261        C  0.25918026  0.47487714  0.49354087    -0.17900
C262        C  0.25242816  0.58871062  0.59331347    -0.17900
H263        H  0.29236405  0.72991369  0.42179961     0.15000
H264        H  0.29771002  0.66788116  0.36770822     0.15000
H265        H  0.30143068  0.51482990  0.61983846     0.15000
H266        H  0.30694158  0.45310821  0.56546253     0.15000
H267        H  0.19798154  0.72367279  0.56421660     0.13300
H268        H  0.20491487  0.66370386  0.61957435     0.13300
H269        H  0.22055652  0.50557420  0.36466518     0.13300
H270        H  0.21917658  0.44457946  0.41948383     0.13300
H271        H  0.23114500  0.61437942  0.46718197     0.26600
H272        H  0.23359272  0.55815962  0.51760169     0.26600
O273        O  0.81691367  0.84259495  0.96601598    -0.72500
O274        O  0.68545959  0.83107388  0.96419922    -0.73500
O275        O  0.74694146  0.90297875  0.96314954    -0.62100
O276        O  0.75661001  0.77195788  0.96751093    -0.70600
O277        O  0.74976337  0.77388841  0.03248033    -0.70100
O278        O  0.74908031  0.90547052  0.02859221    -0.61400
O279        O  0.68392550  0.83858957  0.02920252    -0.73900
O280        O  0.81564289  0.84173222  0.03172040    -0.72600
Cu281      Cu  0.75144855  0.83713220  0.96294644     1.04600
Cu282      Cu  0.74959165  0.83999147  0.03277377     1.04300
C283        C  0.83702757  0.84339447  0.99920861     0.93700
C284        C  0.66359274  0.83344834  0.99638585     0.92800
C285        C  0.74752863  0.92520710  0.99526577     0.84900
C286        C  0.75368307  0.75178105  0.00053430     0.91200
O287        O  0.74164393  0.88621316  0.53439690    -0.72500
O288        O  0.73052491  0.75469317  0.53617122    -0.73500
O289        O  0.80232005  0.81631367  0.53813868    -0.62100
O290        O  0.67143864  0.82543081  0.53279317    -0.70600
O291        O  0.67362772  0.82087666  0.46752577    -0.70100
O292        O  0.80521439  0.81751592  0.47257064    -0.61400
O293        O  0.73586562  0.75379917  0.47107327    -0.73900
O294        O  0.74248444  0.88490321  0.46864079    -0.72600
Cu295      Cu  0.73654001  0.82062306  0.53766325     1.04600
Cu296      Cu  0.73953722  0.81916659  0.46770256     1.04300
C297        C  0.74252087  0.90626438  0.50118983     0.93700
C298        C  0.72995978  0.73327111  0.50359204     0.92800
C299        C  0.82461976  0.81660591  0.50615126     0.84900
C300        C  0.65153645  0.82399998  0.49951234     0.91200
O301        O  0.81165440  0.34298881  0.96446192    -0.72500
O302        O  0.68035331  0.34116973  0.97026298    -0.73500
O303        O  0.74568948  0.40792804  0.96878528    -0.62100
O304        O  0.74604371  0.27661807  0.96650713    -0.70600
O305        O  0.74575275  0.27626164  0.03229892    -0.70100
O306        O  0.75402801  0.40744218  0.03387472    -0.61400
O307        O  0.68398778  0.34548823  0.03553936    -0.73900
O308        O  0.81533619  0.33945955  0.03007162    -0.72600
Cu309      Cu  0.74580702  0.34226313  0.96520969     1.04600
Cu310      Cu  0.74984479  0.34205285  0.03524228     1.04300
C311        C  0.83418644  0.34144252  0.99633247     0.93700
C312        C  0.66117381  0.34343184  0.00379988     0.92800
C313        C  0.75069592  0.42861831  0.00147904     0.84900
C314        C  0.74526535  0.25576423  0.99926090     0.91200
O315        O  0.75821059  0.25735208  0.53406297    -0.72500
O316        O  0.75663391  0.38945571  0.53341837    -0.73500
O317        O  0.69165003  0.32112868  0.53421678    -0.62100
O318        O  0.82316523  0.32525312  0.53354269    -0.70600
O319        O  0.82263328  0.32269693  0.46787812    -0.70100
O320        O  0.69078005  0.32446431  0.46890075    -0.61400
O321        O  0.75840707  0.38886733  0.46828629    -0.73900
O322        O  0.75513139  0.25727324  0.46843679    -0.72600
Cu323      Cu  0.75738976  0.32324466  0.53608595     1.04600
Cu324      Cu  0.75666105  0.32317571  0.46612737     1.04300
C325        C  0.75704613  0.23647898  0.50122281     0.93700
C326        C  0.75871082  0.41046207  0.50067917     0.92800
C327        C  0.67014506  0.32320757  0.50180870     0.84900
C328        C  0.84368277  0.32516806  0.50058257     0.91200
O329        O  0.24781877  0.25951722  0.02634293    -0.72500
O330        O  0.24919961  0.39045741  0.02409278    -0.73500
O331        O  0.18321791  0.32486694  0.02344115    -0.62100
O332        O  0.31449930  0.32398808  0.02678867    -0.70600
O333        O  0.31763175  0.32399013  0.96165354    -0.70100
O334        O  0.18532983  0.32566629  0.95774653    -0.61400
O335        O  0.25384043  0.39042682  0.95882780    -0.73900
O336        O  0.24933208  0.25825511  0.96059613    -0.72600
Cu337      Cu  0.24865243  0.32481467  0.02733506     1.04600
Cu338      Cu  0.25156385  0.32446013  0.95734091     1.04300
C339        C  0.24792908  0.23819854  0.99384546     0.93700
C340        C  0.25206605  0.41152093  0.99149558     0.92800
C341        C  0.16350586  0.32513814  0.99006742     0.84900
C342        C  0.33731528  0.32399754  0.99512137     0.91200
O343        O  0.32749319  0.33634886  0.46749522    -0.72500
O344        O  0.19538488  0.33670330  0.46605072    -0.73500
O345        O  0.26314784  0.40286296  0.46377998    -0.62100
O346        O  0.26026669  0.27104205  0.47016803    -0.70600
O347        O  0.26375658  0.27538654  0.53571136    -0.70100
O348        O  0.25603918  0.40645106  0.52874555    -0.61400
O349        O  0.19461271  0.33616480  0.53176210    -0.73900
O350        O  0.32568632  0.34620578  0.53226533    -0.72600
Cu351      Cu  0.26157656  0.33669684  0.46452295     1.04600
Cu352      Cu  0.26007448  0.34124231  0.53434672     1.04300
C353        C  0.34766560  0.34154398  0.50039964     0.93700
C354        C  0.17424771  0.33484312  0.49870736     0.92800
C355        C  0.25945660  0.42574828  0.49533114     0.84900
C356        C  0.26214492  0.25244967  0.50403181     0.91200
O357        O  0.18549839  0.82366461  0.96928132    -0.72500
O358        O  0.31706149  0.82293906  0.96437245    -0.73500
O359        O  0.24929872  0.75717207  0.96525985    -0.62100
O360        O  0.25259923  0.88797569  0.96779953    -0.70600
O361        O  0.25481415  0.88713748  0.03335089    -0.70100
O362        O  0.25467735  0.75511907  0.03041015    -0.61400
O363        O  0.31984707  0.82106848  0.02969432    -0.73900
O364        O  0.18844373  0.82067980  0.03487920    -0.72600
Cu365      Cu  0.25099691  0.82284497  0.96446285     1.04600
Cu366      Cu  0.25447470  0.82089022  0.03439876     1.04300
C367        C  0.16621210  0.82262506  0.00283653     0.93700
C368        C  0.33952058  0.82248246  0.99636217     0.92800
C369        C  0.25217423  0.73505881  0.99719863     0.84900
C370        C  0.25431726  0.90843630  0.00071543     0.91200
O371        O  0.24106244  0.90004685  0.53394131    -0.72500
O372        O  0.24644981  0.76946516  0.52668492    -0.73500
O373        O  0.30891248  0.83723279  0.52752049    -0.62100
O374        O  0.17763698  0.83093598  0.53289784    -0.70600
O375        O  0.17414914  0.83504608  0.46737360    -0.70100
O376        O  0.30594847  0.84126573  0.46231246    -0.61400
O377        O  0.24132778  0.77192733  0.46150058    -0.73900
O378        O  0.23847301  0.90401612  0.46833638    -0.72600
Cu379      Cu  0.24355473  0.83438819  0.53244222     1.04600
Cu380      Cu  0.23983117  0.83827563  0.46253852     1.04300
C381        C  0.23930499  0.92273961  0.50225156     0.93700
C382        C  0.24451590  0.74962737  0.49341622     0.92800
C383        C  0.32853018  0.83972466  0.49418966     0.84900
C384        C  0.15516184  0.83117536  0.50093284     0.91200
C385        C  0.21664537  0.04101193  0.53147328    -0.22100
C386        C  0.24891571  0.06323019  0.50948161     0.09900
C387        C  0.27743626  0.03917647  0.48514015     0.10300
C388        C  0.27262297  0.99347417  0.48281043    -0.17000
C389        C  0.24040636  0.97108087  0.50471519    -0.27400
C390        C  0.21182681  0.99517842  0.52930097     0.18600
C391        C  0.25069433  0.11186614  0.51003140     0.12600
C392        C  0.31277586  0.06180864  0.46137787    -0.11700
H393        H  0.29468958  0.97496022  0.46427068     0.12900
C394        C  0.17488814  0.97410617  0.55232025    -0.22600
H395        H  0.19447526  0.05967381  0.54978984     0.08500
C396        C  0.22189015  0.13656293  0.48651350     0.04900
C397        C  0.22700866  0.18227939  0.48493320    -0.19800
C398        C  0.26016571  0.20404583  0.50641140    -0.12100
C399        C  0.28922681  0.17920743  0.52993662     0.13600
C400        C  0.28370447  0.13343498  0.53178354    -0.22500
C401        C  0.18611961  0.11457969  0.46262902    -0.05600
H402        H  0.20465977  0.20126673  0.46706819     0.15100
C403        C  0.32766816  0.19927650  0.55176765    -0.15800
H404        H  0.30620093  0.11424489  0.54931968     0.09400
H405        H  0.14346455  0.98935531  0.54372356     0.07300
H406        H  0.18031492  0.97940409  0.58450942     0.08500
H407        H  0.17130620  0.93846461  0.54681297     0.07500
H408        H  0.33590332  0.07915744  0.48158542     0.02400
H409        H  0.29790339  0.08585070  0.44088718     0.02900
H410        H  0.33179773  0.03819609  0.44346673     0.06400
H411        H  0.16694390  0.13864580  0.44536887     0.05400
H412        H  0.16323697  0.09686070  0.48269220    -0.00400
H413        H  0.20060979  0.09093860  0.44151039     0.01100
H414        H  0.32354384  0.19414303  0.58410426     0.04800
H415        H  0.33199633  0.23476986  0.54612520     0.06700
H416        H  0.35825955  0.18318080  0.54209626     0.07600
C417        C  0.21696083  0.11806151  0.97957938    -0.22100
C418        C  0.25009191  0.09791064  0.00150749     0.09900
C419        C  0.28244932  0.12386045  0.02042726     0.10300
C420        C  0.28049404  0.16962944  0.01752048    -0.17000
C421        C  0.24758365  0.18994162  0.99534339    -0.27400
C422        C  0.21510508  0.16386543  0.97635601     0.18600
C423        C  0.25157178  0.04949150  0.00247446     0.12600
C424        C  0.31954013  0.10324226  0.04287095    -0.11700
H425        H  0.30527643  0.18973796  0.03206094     0.12900
C426        C  0.17732331  0.18298429  0.95369413    -0.22600
H427        H  0.19227848  0.09786121  0.96499712     0.08500
C428        C  0.23230175  0.02493638  0.03337924     0.04900
C429        C  0.23459408  0.97900377  0.03248296    -0.19800
C430        C  0.25487594  0.95707291  0.00093218    -0.12100
C431        C  0.27442560  0.98207088  0.97004816     0.13600
C432        C  0.27254149  0.02794145  0.97140130    -0.22500
C433        C  0.20857631  0.04714469  0.06678033    -0.05600
H434        H  0.21945729  0.96009622  0.05604835     0.15100
C435        C  0.29829946  0.96108146  0.93599633    -0.15800
H436        H  0.28736281  0.04728845  0.94794563     0.09400
H437        H  0.14600303  0.17126172  0.96686426     0.07300
H438        H  0.17871443  0.17203996  0.92234533     0.08500
H439        H  0.17698591  0.21925061  0.95421903     0.07500
H440        H  0.33853253  0.08199790  0.02265828     0.02400
H441        H  0.30654578  0.08310437  0.06762694     0.02900
H442        H  0.34226362  0.12833181  0.05550584     0.06400
H443        H  0.19502386  0.02305383  0.08829925     0.05400
H444        H  0.18101094  0.06638189  0.05470955    -0.00400
H445        H  0.23123823  0.06951743  0.08298810     0.01100
H446        H  0.27501875  0.94193148  0.91733197     0.04800
H447        H  0.32429068  0.93938111  0.94749668     0.06700
H448        H  0.31418172  0.98590833  0.91652215     0.07600
C449        C  0.96197427  0.35871337  0.52262886    -0.22100
C450        C  0.98470624  0.32922376  0.49870861     0.09900
C451        C  0.96109536  0.29893372  0.47504665     0.10300
C452        C  0.91509330  0.29864415  0.47602831    -0.17000
C453        C  0.89214141  0.32795754  0.50017567    -0.27400
C454        C  0.91601482  0.35906740  0.52318700     0.18600
C455        C  0.03328619  0.33103926  0.49840612     0.12600
C456        C  0.98453773  0.26711407  0.44865313    -0.11700
H457        H  0.89693046  0.27506992  0.45818090     0.12900
C458        C  0.89451309  0.39456185  0.54706593    -0.22600
H459        H  0.98028574  0.38235741  0.54030220     0.08500
C460        C  0.05653232  0.36123923  0.47449445     0.04900
C461        C  0.10254744  0.36107092  0.47458301    -0.19800
C462        C  0.12584343  0.33163855  0.49831854    -0.12100
C463        C  0.10234659  0.30079646  0.52176696     0.13600
C464        C  0.05638506  0.30136358  0.52183966    -0.22500
C465        C  0.03271398  0.39357263  0.44892144    -0.05600
H466        H  0.12046669  0.38458459  0.45658106     0.15100
C467        C  0.12422652  0.26555462  0.54570710    -0.15800
H468        H  0.03833451  0.27785299  0.53975904     0.09400
H469        H  0.90806876  0.42700536  0.53809596     0.07300
H470        H  0.90125034  0.38952290  0.57904962     0.08500
H471        H  0.85875853  0.39593212  0.54247197     0.07500
H472        H  0.00564764  0.24564462  0.46681676     0.02400
H473        H  0.00519728  0.28537448  0.42706816     0.02900
H474        H  0.96123175  0.24592457  0.43180941     0.06400
H475        H  0.05577485  0.41463785  0.43179724     0.05400
H476        H  0.01242837  0.41513850  0.46775658    -0.00400
H477        H  0.01119559  0.37576871  0.42760969     0.01100
H478        H  0.11736138  0.27064557  0.57765897     0.04800
H479        H  0.16010155  0.26441236  0.54142439     0.06700
H480        H  0.11087502  0.23299571  0.53670567     0.07600
C481        C  0.04335724  0.30197253  0.01271100    -0.22100
C482        C  0.02303119  0.33379388  0.98946017     0.09900
C483        C  0.04881362  0.36177525  0.96547002     0.10300
C484        C  0.09457400  0.35739641  0.96546441    -0.17000
C485        C  0.11508923  0.32579319  0.98905444    -0.27400
C486        C  0.08897581  0.29711561  0.01244029     0.18600
C487        C  0.97456918  0.33636178  0.99006683     0.12600
C488        C  0.02797681  0.39610530  0.93987613    -0.11700
H489        H  0.11451974  0.37934575  0.94758151     0.12900
C490        C  0.10760645  0.25988002  0.03618064    -0.22600
H491        H  0.02332125  0.28016318  0.03067015     0.08500
C492        C  0.94819604  0.30690199  0.96794740     0.04900
C493        C  0.90241896  0.30990063  0.97005988    -0.19800
C494        C  0.88245489  0.34146075  0.99404216    -0.12100
C495        C  0.90897409  0.37170149  0.01547331     0.13600
C496        C  0.95473615  0.36842767  0.01347495    -0.22500
C497        C  0.96842974  0.27239535  0.94210006    -0.05600
H498        H  0.88206055  0.28696935  0.95347948     0.15100
C499        C  0.89041295  0.40875272  0.03953128    -0.15800
H500        H  0.97515846  0.39129940  0.03006546     0.09400
H501        H  0.09128302  0.22868780  0.02714394     0.07300
H502        H  0.10142901  0.26547514  0.06818030     0.08500
H503        H  0.14316030  0.25545893  0.03168432     0.07500
H504        H  0.00978781  0.41950548  0.95868344     0.02400
H505        H  0.00491839  0.38022040  0.91864846     0.02900
H506        H  0.05277901  0.41497158  0.92265960     0.06400
H507        H  0.94316469  0.25238561  0.92642188     0.05400
H508        H  0.98835062  0.25002059  0.96046433    -0.00400
H509        H  0.98974652  0.28825997  0.91953282     0.01100
H510        H  0.89956964  0.40465730  0.07113493     0.04800
H511        H  0.85433721  0.41100721  0.03747834     0.06700
H512        H  0.90422403  0.44037884  0.02870903     0.07600
C513        C  0.94395033  0.79762786  0.53519274    -0.22100
C514        C  0.96573924  0.82434154  0.50757450     0.09900
C515        C  0.94122035  0.84829256  0.47982079     0.10300
C516        C  0.89537194  0.84460493  0.47995649    -0.17000
C517        C  0.87323831  0.81801905  0.50760714    -0.27400
C518        C  0.89793955  0.79427314  0.53573958     0.18600
C519        C  0.01433743  0.82560011  0.50715379     0.12600
C520        C  0.96349426  0.87807786  0.45031122    -0.11700
H521        H  0.87661668  0.86319198  0.45866135     0.12900
C522        C  0.87628481  0.76424016  0.56545181    -0.22600
H523        H  0.96313410  0.77913407  0.55623459     0.08500
C524        C  0.03871257  0.85298967  0.53293938     0.04900
C525        C  0.08466993  0.85359241  0.53058168    -0.19800
C526        C  0.10680372  0.82744783  0.50298428    -0.12100
C527        C  0.08219373  0.79890984  0.47801062     0.13600
C528        C  0.03629446  0.79891793  0.48009795    -0.22500
C529        C  0.01616246  0.88199780  0.56245628    -0.05600
H530        H  0.10341606  0.87520171  0.54989973     0.15100
C531        C  0.10281893  0.76658195  0.45006715    -0.15800
H532        H  0.01738796  0.77743492  0.46077027     0.09400
H533        H  0.85588807  0.78346833  0.58614329     0.07300
H534        H  0.90073523  0.74641474  0.58347170     0.08500
H535        H  0.85550114  0.73954693  0.54984463     0.07500
H536        H  0.98548685  0.85878594  0.43104513     0.02400
H537        H  0.98306580  0.90350202  0.46621663     0.02900
H538        H  0.93948702  0.89491088  0.43105398     0.06400
H539        H  0.04001834  0.90170215  0.58012038     0.05400
H540        H  0.99646605  0.86161642  0.58321230    -0.00400
H541        H  0.99423235  0.90490406  0.54670216     0.01100
H542        H  0.09011669  0.73311303  0.45667926     0.04800
H543        H  0.13888546  0.76526049  0.45262758     0.06700
H544        H  0.09410106  0.77496067  0.41907437     0.07600
C545        C  0.78042640  0.11683112  0.52513201    -0.22100
C546        C  0.75125802  0.09541612  0.49931638     0.09900
C547        C  0.72488874  0.12023600  0.47368864     0.10300
C548        C  0.72788609  0.16617086  0.47483899    -0.17000
C549        C  0.75685041  0.18791322  0.50089322    -0.27400
C550        C  0.78426408  0.16273355  0.52579320     0.18600
C551        C  0.74927364  0.04688034  0.49923725     0.12600
C552        C  0.69384104  0.09816395  0.44499592    -0.11700
H553        H  0.70710531  0.18526264  0.45556230     0.12900
C554        C  0.81945198  0.18250597  0.55192785    -0.22600
H555        H  0.80112372  0.09747170  0.54428186     0.08500
C556        C  0.77947492  0.02188394  0.47749915     0.04900
C557        C  0.77617730  0.97594381  0.47829668    -0.19800
C558        C  0.74337075  0.95458235  0.50037700    -0.12100
C559        C  0.71226136  0.97979175  0.52114768     0.13600
C560        C  0.71609743  0.02564603  0.52077755    -0.22500
C561        C  0.81494606  0.04376836  0.45336844    -0.05600
H562        H  0.79963832  0.95657466  0.46204233     0.15100
C563        C  0.67350561  0.95979331  0.54248183    -0.15800
H564        H  0.69250003  0.04507848  0.53681590     0.09400
H565        H  0.85134829  0.16735797  0.54476377     0.07300
H566        H  0.81162229  0.17578711  0.58346245     0.08500
H567        H  0.82401347  0.21823159  0.54794444     0.07500
H568        H  0.66939015  0.07807596  0.46145224     0.02400
H569        H  0.71239572  0.07664375  0.42467884     0.02900
H570        H  0.67591366  0.12235716  0.42679392     0.06400
H571        H  0.83555295  0.01945563  0.43784806     0.05400
H572        H  0.83649675  0.06379652  0.47298725    -0.00400
H573        H  0.80001824  0.06531790  0.43073036     0.01100
H574        H  0.67584951  0.96739670  0.57458665     0.04800
H575        H  0.67063064  0.92382283  0.53880668     0.06700
H576        H  0.64285737  0.97395181  0.53061565     0.07600
C577        C  0.95608465  0.86992046  0.02493301    -0.22100
C578        C  0.97766557  0.83870196  0.00185475     0.09900
C579        C  0.95309604  0.81063721  0.97681498     0.10300
C580        C  0.90732590  0.81389074  0.97593012    -0.17000
C581        C  0.88545147  0.84433789  0.99972487    -0.27400
C582        C  0.91025487  0.87348071  0.02390584     0.18600
C583        C  0.02610427  0.83623543  0.00364176     0.12600
C584        C  0.97523390  0.77720879  0.95109165    -0.11700
H585        H  0.88838527  0.79180101  0.95720846     0.12900
C586        C  0.88991665  0.90971647  0.04774395    -0.22600
H587        H  0.97520176  0.89199197  0.04353124     0.08500
C588        C  0.05292161  0.86412869  0.98057954     0.04900
C589        C  0.09845024  0.85860649  0.98108268    -0.19800
C590        C  0.11792529  0.82590352  0.00418116    -0.12100
C591        C  0.09091265  0.79800615  0.02751042     0.13600
C592        C  0.04534867  0.80389881  0.02716087    -0.22500
C593        C  0.03341499  0.89932065  0.95505995    -0.05600
H594        H  0.11907406  0.88013544  0.96340400     0.15100
C595        C  0.10833177  0.76041078  0.05151031    -0.15800
H596        H  0.02449115  0.78225159  0.04450873     0.09400
H597        H  0.90499911  0.94160823  0.03910021     0.07300
H598        H  0.89607644  0.90416754  0.07975229     0.08500
H599        H  0.85419010  0.91251821  0.04299741     0.07500
H600        H  0.99345218  0.75383135  0.96988895     0.02400
H601        H  0.99844941  0.79392224  0.93063447     0.02900
H602        H  0.95124278  0.75816114  0.93300646     0.06400
H603        H  0.05899997  0.91810229  0.93871426     0.05400
H604        H  0.01511729  0.92266466  0.97383724    -0.00400
H605        H  0.01070633  0.88427997  0.93305273     0.01100
H606        H  0.10147686  0.76603996  0.08339025     0.04800
H607        H  0.14389267  0.75552460  0.04779491     0.06700
H608        H  0.09171831  0.72950174  0.04211442     0.07600
C609        C  0.71461915  0.13638988  0.01734409    -0.22100
C610        C  0.74913778  0.11529775  0.99816205     0.09900
C611        C  0.78196527  0.14043410  0.97911914     0.10300
C612        C  0.77934545  0.18630797  0.97947770    -0.17000
C613        C  0.74494083  0.20750201  0.99883808    -0.27400
C614        C  0.71189137  0.18224725  0.01775214     0.18600
C615        C  0.74949840  0.06677633  0.99748312     0.12600
C616        C  0.82001501  0.11884124  0.95899426    -0.11700
H617        H  0.80466632  0.20581033  0.96514425     0.12900
C618        C  0.67252508  0.20229530  0.03723665    -0.22600
H619        H  0.68925379  0.11685455  0.03157912     0.08500
C620        C  0.76464792  0.04246592  0.03003164     0.04900
C621        C  0.76338390  0.99654291  0.02827238    -0.19800
C622        C  0.74758091  0.97406736  0.99455945    -0.12100
C623        C  0.73253870  0.99885314  0.96175236     0.13600
C624        C  0.73365661  0.04486852  0.96381993    -0.22500
C625        C  0.78261586  0.06503231  0.06642086    -0.05600
H626        H  0.77535195  0.97812593  0.05338983     0.15100
C627        C  0.71433517  0.97758129  0.92479582    -0.15800
H628        H  0.72197439  0.06405020  0.93904479     0.09400
H629        H  0.67247752  0.19427015  0.06930255     0.07300
H630        H  0.64218519  0.18864738  0.02354960     0.08500
H631        H  0.67146774  0.23834660  0.03396657     0.07500
H632        H  0.80793745  0.09728455  0.93471459     0.02400
H633        H  0.83827664  0.09889122  0.98080421     0.02900
H634        H  0.84310218  0.14333348  0.94606902     0.06400
H635        H  0.79358704  0.04115198  0.08904165     0.05400
H636        H  0.75699882  0.08568036  0.07996421    -0.00400
H637        H  0.81111959  0.08605539  0.05819692     0.01100
H638        H  0.70226400  0.00220093  0.90331939     0.04800
H639        H  0.68638338  0.95559344  0.93252815     0.06700
H640        H  0.74024035  0.95868962  0.90969120     0.07600
C641        C  0.28004090  0.55746309  0.78428433    -0.22100
C642        C  0.24856495  0.58285717  0.76507124     0.09900
C643        C  0.21708935  0.60511854  0.78779516     0.10300
C644        C  0.21791220  0.60151734  0.82931221    -0.17000
C645        C  0.24968073  0.57638957  0.84867100    -0.27400
C646        C  0.28133400  0.55425671  0.82576893     0.18600
C647        C  0.24932983  0.58566082  0.72111897     0.12600
C648        C  0.18323322  0.63330577  0.76823879    -0.11700
H649        H  0.19395813  0.61876666  0.84688243     0.12900
C650        C  0.31770668  0.52807771  0.84395512    -0.22600
H651        H  0.30424838  0.54051009  0.76673782     0.08500
C652        C  0.27994117  0.61262865  0.70100087     0.04900
C653        C  0.28003953  0.61324867  0.65935394    -0.19800
C654        C  0.25003942  0.58771942  0.63741391    -0.12100
C655        C  0.21862578  0.56163592  0.65766990     0.13600
C656        C  0.21902887  0.56059931  0.69923714    -0.22500
C657        C  0.31213823  0.64102660  0.72350843    -0.05600
H658        H  0.30375244  0.63353583  0.64375654     0.15100
C659        C  0.18372683  0.53516452  0.63648969    -0.15800
H660        H  0.19530372  0.54024137  0.71476386     0.09400
H661        H  0.34978043  0.54166309  0.83408580     0.07300
H662        H  0.31482860  0.49344181  0.83406750     0.08500
H663        H  0.31759173  0.52860583  0.87674240     0.07500
H664        H  0.16239446  0.61302281  0.74822330     0.02400
H665        H  0.19971436  0.65952374  0.75076001     0.02900
H666        H  0.16161006  0.64909369  0.79033062     0.06400
H667        H  0.33320780  0.66071785  0.70327500     0.05400
H668        H  0.33369250  0.62027487  0.74191347    -0.00400
H669        H  0.29419936  0.66395161  0.74300680     0.01100
H670        H  0.18782227  0.49987026  0.64327699     0.04800
H671        H  0.18445628  0.53928331  0.60390617     0.06700
H672        H  0.15096031  0.54551513  0.64685188     0.07600
C673        C  0.29825076  0.59786362  0.19947618    -0.22100
C674        C  0.26596710  0.57565039  0.22138989     0.09900
C675        C  0.23366718  0.55043847  0.20142444     0.10300
C676        C  0.23396217  0.54865704  0.15987979    -0.17000
C677        C  0.26572579  0.57156542  0.13787894    -0.27400
C678        C  0.29871854  0.59596785  0.15793918     0.18600
C679        C  0.26586721  0.57992452  0.26517005     0.12600
C680        C  0.19898944  0.52531311  0.22394901    -0.11700
H681        H  0.20881412  0.52998184  0.14436663     0.12900
C682        C  0.33495386  0.62011648  0.13653734    -0.22600
H683        H  0.32310032  0.61704796  0.21490232     0.08500
C684        C  0.29600871  0.55742548  0.28916475     0.04900
C685        C  0.29312375  0.56113520  0.33054353    -0.19800
C686        C  0.26031331  0.58617373  0.34847845    -0.12100
C687        C  0.23002137  0.60855166  0.32428650     0.13600
C688        C  0.23381085  0.60579786  0.28296839    -0.22500
C689        C  0.33039966  0.52864693  0.27116853    -0.05600
H690        H  0.31611149  0.54382103  0.34912928     0.15100
C691        C  0.19231818  0.63417928  0.34078247    -0.15800
H692        H  0.21064560  0.62291635  0.26439279     0.09400
H693        H  0.36710178  0.60798596  0.14692225     0.07300
H694        H  0.33297886  0.65570181  0.14307658     0.08500
H695        H  0.33367211  0.61565066  0.10397939     0.07500
H696        H  0.17849915  0.54823966  0.24116793     0.02400
H697        H  0.21471826  0.50191061  0.24452472     0.02900
H698        H  0.17703216  0.50639687  0.20378104     0.06400
H699        H  0.35056826  0.51255125  0.29421786     0.05400
H700        H  0.35261462  0.54854318  0.25218343    -0.00400
H701        H  0.31446048  0.50263721  0.25293757     0.01100
H702        H  0.19585003  0.66909335  0.33200037     0.04800
H703        H  0.18988568  0.63257613  0.37345711     0.06700
H704        H  0.16108870  0.62087692  0.32854125     0.07600
C705        C  0.47343672  0.37166242  0.79388718    -0.22100
C706        C  0.50910045  0.35296204  0.77437390     0.09900
C707        C  0.54499244  0.33819114  0.79680362     0.10300
C708        C  0.54154608  0.33647387  0.83823723    -0.17000
C709        C  0.50494316  0.35342632  0.85810817    -0.27400
C710        C  0.47186528  0.37396874  0.83541403     0.18600
C711        C  0.50840544  0.34960383  0.73051159     0.12600
C712        C  0.58766560  0.32648524  0.77723811    -0.11700
H713        H  0.56787840  0.32225064  0.85526424     0.12900
C714        C  0.43531001  0.39977230  0.85373570    -0.22600
H715        H  0.44697303  0.38525427  0.77655330     0.08500
C716        C  0.50323530  0.30871677  0.71120975     0.04900
C717        C  0.50494292  0.30691919  0.66969981    -0.19800
C718        C  0.50851421  0.34523867  0.64693831    -0.12100
C719        C  0.51074711  0.38642637  0.66628521     0.13600
C720        C  0.51156307  0.38798621  0.70784944    -0.22500
C721        C  0.49340696  0.26733330  0.73413799    -0.05600
H722        H  0.50209009  0.27554290  0.65475075     0.15100
C723        C  0.51193293  0.42925823  0.64409393    -0.15800
H724        H  0.51423867  0.41942678  0.72272562     0.09400
H725        H  0.40336600  0.38360426  0.84703761     0.07300
H726        H  0.43534990  0.43333502  0.84105815     0.08500
H727        H  0.43870175  0.40350064  0.88623345     0.07500
H728        H  0.60052985  0.35538184  0.76078164     0.02400
H729        H  0.58327323  0.29896861  0.75615872     0.02900
H730        H  0.61273997  0.31689989  0.79933651     0.06400
H731        H  0.48879759  0.23867182  0.71417634     0.05400
H732        H  0.46277871  0.27147629  0.75132787    -0.00400
H733        H  0.52028738  0.25968536  0.75491932     0.01100
H734        H  0.48372954  0.44946716  0.65326469     0.04800
H735        H  0.51006149  0.42499233  0.61153211     0.06700
H736        H  0.54275535  0.44732619  0.65121002     0.07600
C737        C  0.50218126  0.28098313  0.20886902    -0.22100
C738        C  0.50343641  0.32119367  0.22922783     0.09900
C739        C  0.50144425  0.36066208  0.20733965     0.10300
C740        C  0.49904424  0.35890630  0.16586905    -0.17000
C741        C  0.49728786  0.31880292  0.14564178    -0.27400
C742        C  0.49820800  0.27926532  0.16741515     0.18600
C743        C  0.50567001  0.32149514  0.27336510     0.12600
C744        C  0.50069880  0.40476491  0.22750743    -0.11700
H745        H  0.49844229  0.38906631  0.14895203     0.12900
C746        C  0.49516609  0.23491772  0.14783070    -0.22600
H747        H  0.50407860  0.25067186  0.22544401     0.08500
C748        C  0.47081812  0.30530086  0.29688335     0.04900
C749        C  0.47358330  0.30857222  0.33833744    -0.19800
C750        C  0.50918131  0.32976731  0.35712384    -0.12100
C751        C  0.54339140  0.34735877  0.33323252     0.13600
C752        C  0.54208994  0.34101103  0.29203597    -0.22500
C753        C  0.42999346  0.28582774  0.27843040    -0.05600
H754        H  0.44738158  0.29492590  0.35629413     0.15100
C755        C  0.58074255  0.37478005  0.34954598    -0.15800
H756        H  0.56896325  0.35329011  0.27407716     0.09400
H757        H  0.46641238  0.21658999  0.15969976     0.07300
H758        H  0.52525606  0.21619891  0.15430530     0.08500
H759        H  0.49133512  0.23696074  0.11522755     0.07500
H760        H  0.53203588  0.41122192  0.24317924     0.02400
H761        H  0.47325065  0.40570325  0.24899984     0.02900
H762        H  0.49611588  0.43176654  0.20592968     0.06400
H763        H  0.40499978  0.27732202  0.30111308     0.05400
H764        H  0.43785257  0.25536976  0.26215266    -0.00400
H765        H  0.41535420  0.30977333  0.25769492     0.01100
H766        H  0.61208662  0.35744339  0.34506168     0.04800
H767        H  0.57707200  0.38262269  0.38137120     0.06700
H768        H  0.58237151  0.40656047  0.33358509     0.07600
C769        C  0.71981897  0.58382620  0.79393358    -0.22100
C770        C  0.75941591  0.57861948  0.77354631     0.09900
C771        C  0.79895734  0.57642699  0.79524199     0.10300
C772        C  0.79811510  0.58212734  0.83645308    -0.17000
C773        C  0.75843514  0.58593027  0.85697329    -0.27400
C774        C  0.71859468  0.58530689  0.83543152     0.18600
C775        C  0.75883164  0.57591801  0.72959636     0.12600
C776        C  0.84175046  0.56584863  0.77540332    -0.11700
H777        H  0.82850104  0.58173949  0.85308633     0.12900
C778        C  0.67429055  0.58509638  0.85510313    -0.22600
H779        H  0.68945616  0.58573762  0.77739733     0.08500
C780        C  0.73711647  0.54146260  0.70916398     0.04900
C781        C  0.73690851  0.54142410  0.66759803    -0.19800
C782        C  0.75990131  0.57351423  0.64585555    -0.12100
C783        C  0.78356950  0.60665873  0.66653784     0.13600
C784        C  0.78112731  0.60839588  0.70793339    -0.22500
C785        C  0.71515776  0.50407106  0.73090048    -0.05600
H786        H  0.71872324  0.51608406  0.65186363     0.15100
C787        C  0.81217082  0.64037051  0.64614168    -0.15800
H788        H  0.79759932  0.63496993  0.72355174     0.09400
H789        H  0.65542451  0.55556525  0.84553401     0.07300
H790        H  0.65606150  0.61473154  0.84615741     0.08500
H791        H  0.67624762  0.58434719  0.88786365     0.07500
H792        H  0.85161142  0.59227452  0.75466980     0.02400
H793        H  0.83831672  0.53446969  0.75890655     0.02900
H794        H  0.86861562  0.56216687  0.79731026     0.06400
H795        H  0.70241609  0.47864342  0.71014497     0.05400
H796        H  0.68706196  0.51598923  0.74840564    -0.00400
H797        H  0.73907405  0.48831950  0.75097946     0.01100
H798        H  0.79887648  0.67358639  0.65127955     0.04800
H799        H  0.81493393  0.63485848  0.61381680     0.06700
H800        H  0.84581147  0.63914046  0.65858157     0.07600
C801        C  0.70913136  0.61270056  0.20928574    -0.22100
C802        C  0.73605423  0.58360335  0.22981188     0.09900
C803        C  0.76470663  0.55649380  0.20846568     0.10300
C804        C  0.76692716  0.56024966  0.16706653    -0.17000
C805        C  0.74010267  0.58945473  0.14628110    -0.27400
C806        C  0.71009930  0.61539458  0.16773936     0.18600
C807        C  0.73327084  0.58152486  0.27365225     0.12600
C808        C  0.79223587  0.52299979  0.22932395    -0.11700
H809        H  0.78936077  0.53986097  0.15065520     0.12900
C810        C  0.67761974  0.64504028  0.14795646    -0.22600
H811        H  0.68658255  0.63287991  0.22579804     0.08500
C812        C  0.76253989  0.60562381  0.29792344     0.04900
C813        C  0.75957150  0.60157778  0.33923752    -0.19800
C814        C  0.72721885  0.57495373  0.35694912    -0.12100
C815        C  0.69703920  0.55182403  0.33255378     0.13600
C816        C  0.70078285  0.55507142  0.29116918    -0.22500
C817        C  0.79641652  0.63610816  0.28023025    -0.05600
H818        H  0.78239470  0.61957302  0.35798440     0.15100
C819        C  0.66028739  0.52401741  0.34911220    -0.15800
H820        H  0.67803478  0.53701623  0.27238664     0.09400
H821        H  0.68426820  0.67949742  0.15696975     0.07300
H822        H  0.64396346  0.63563857  0.15736291     0.08500
H823        H  0.67843422  0.64314242  0.11522102     0.07500
H824        H  0.77066132  0.49958623  0.24551210     0.02400
H825        H  0.81467008  0.53935865  0.25074354     0.02900
H826        H  0.81236363  0.50403769  0.20814803     0.06400
H827        H  0.81632094  0.65284014  0.30345032     0.05400
H828        H  0.77995952  0.66159944  0.26235694    -0.00400
H829        H  0.81893378  0.61758985  0.26088219     0.01100
H830        H  0.62849880  0.53623891  0.33793843     0.04800
H831        H  0.65901091  0.52450849  0.38190559     0.06700
H832        H  0.66420996  0.48954385  0.33932301     0.07600
C833        C  0.52276144  0.80082714  0.78577155    -0.22100
C834        C  0.49506352  0.83082185  0.76725566     0.09900
C835        C  0.46898124  0.85855549  0.79056203     0.10300
C836        C  0.47219630  0.85661896  0.83201383    -0.17000
C837        C  0.49996023  0.82665410  0.85074315    -0.27400
C838        C  0.52504143  0.79784311  0.82724327     0.18600
C839        C  0.49314177  0.83204262  0.72337578     0.12600
C840        C  0.43722056  0.88956742  0.77163020    -0.11700
H841        H  0.45253873  0.87821520  0.85002415     0.12900
C842        C  0.55335010  0.76268624  0.84474184    -0.22600
H843        H  0.54216714  0.77905037  0.76769581     0.08500
C844        C  0.51971441  0.86123306  0.70134582     0.04900
C845        C  0.51635833  0.86151961  0.65985939    -0.19800
C846        C  0.48776265  0.83256980  0.63985884    -0.12100
C847        C  0.46175221  0.80271845  0.66202769     0.13600
C848        C  0.46443355  0.80325120  0.70355518    -0.22500
C849        C  0.55217357  0.89138866  0.72161370    -0.05600
H850        H  0.53674620  0.88385245  0.64278455     0.15100
C851        C  0.43200231  0.76893202  0.64299769    -0.15800
H852        H  0.44445278  0.78054377  0.72063429     0.09400
H853        H  0.58799638  0.76872278  0.83621756     0.07300
H854        H  0.54266768  0.73022623  0.83305334     0.08500
H855        H  0.55153731  0.76099374  0.87745938     0.07500
H856        H  0.41303395  0.87072169  0.75360136     0.02400
H857        H  0.45500170  0.91303795  0.75218903     0.02900
H858        H  0.41902215  0.90864529  0.79412608     0.06400
H859        H  0.57063441  0.91184585  0.69998941     0.05400
H860        H  0.57607227  0.87175204  0.73861977    -0.00400
H861        H  0.53493386  0.91361518  0.74221996     0.01100
H862        H  0.44180726  0.73570560  0.65266674     0.04800
H863        H  0.43309239  0.76946441  0.61022394     0.06700
H864        H  0.39771573  0.77456795  0.65238909     0.07600
C865        C  0.52547643  0.86433679  0.20308094    -0.22100
C866        C  0.49938574  0.83368955  0.22338807     0.09900
C867        C  0.47320617  0.80357939  0.20180132     0.10300
C868        C  0.47476934  0.80395092  0.16023342    -0.17000
C869        C  0.50127433  0.83427631  0.13975636    -0.27400
C870        C  0.52635264  0.86544767  0.16151571     0.18600
C871        C  0.49886507  0.83468339  0.26728760     0.12600
C872        C  0.44314402  0.77158354  0.22262658    -0.11700
H873        H  0.45517842  0.78049204  0.14351825     0.12900
C874        C  0.55342361  0.90097805  0.14202348    -0.22600
H875        H  0.54486372  0.88795476  0.21982714     0.08500
C876        C  0.52558564  0.80692081  0.28998900     0.04900
C877        C  0.52260070  0.80800839  0.33148932    -0.19800
C878        C  0.49476738  0.83744464  0.35085726    -0.12100
C879        C  0.46998832  0.86709330  0.32791775     0.13600
C880        C  0.47163789  0.86458002  0.28643328    -0.22500
C881        C  0.55780057  0.77685843  0.27043008    -0.05600
H882        H  0.54226124  0.78593717  0.34901633     0.15100
C883        C  0.44257700  0.90262425  0.34598608    -0.15800
H884        H  0.45204963  0.88664895  0.26881673     0.09400
H885        H  0.58843421  0.89684272  0.14988259     0.07300
H886        H  0.54256955  0.93347592  0.15276979     0.08500
H887        H  0.55045039  0.90104248  0.10932874     0.07500
H888        H  0.41920299  0.78974502  0.24087333     0.02400
H889        H  0.46230714  0.74977971  0.24214189     0.02900
H890        H  0.42459360  0.75070802  0.20128229     0.06400
H891        H  0.57658467  0.75780807  0.29255306     0.05400
H892        H  0.58145676  0.79650042  0.25263179    -0.00400
H893        H  0.54042753  0.75333922  0.25065772     0.01100
H894        H  0.45327030  0.93492451  0.33406234     0.04800
H895        H  0.44551172  0.90453179  0.37863454     0.06700
H896        H  0.40763029  0.89694850  0.33819082     0.07600
loop_ 
_geom_bond_atom_site_label_1 
_geom_bond_atom_site_label_2 
_geom_bond_distance 
_geom_bond_site_symmetry_2 
_ccdc_geom_bond_type 
N1            C6   1.354       .  A
N1            C5   1.352       .  A
N1           H33   1.043       .  S
N2            C9   1.351       .  A
N2           C10   1.352       .  A
N3            C8   1.353       .  A
N3            C7   1.356       .  A
N3           H34   1.042       .  S
N4           C11   1.353       .  A
N4           C12   1.350       .  A
C5           C13   1.384       .  A
C5           C21   1.410       .  A
C6           C22   1.421   1_554  A
C6           C14   1.391       .  A
C7           C15   1.390       .  A
C7           C24   1.423       .  A
C8           C23   1.414       .  A
C8           C16   1.384       .  A
C9           C21   1.409       .  A
C9           C17   1.383       .  A
C10          C24   1.420   1_554  A
C10          C18   1.390       .  A
C11          C19   1.389       .  A
C11          C22   1.418       .  A
C12          C20   1.384       .  A
C12          C23   1.410       .  A
C13          C14   1.377       .  A
C13          H25   1.082       .  S
C14          H26   1.081       .  S
C15          C16   1.379       .  A
C15          H27   1.081       .  S
C16          H28   1.082       .  S
C17          C18   1.375       .  A
C17          H29   1.082       .  S
C18          H30   1.081       .  S
C19          C20   1.374       .  A
C19          H31   1.080       .  S
C20          H32   1.082       .  S
C21         C869   1.491       .  S
C22         C368   1.500       .  S
C23         C837   1.493       .  S
C24         C284   1.502       .  S
N35          C40   1.351       .  A
N35          C39   1.355       .  A
N35          H67   1.043       .  S
N36          C43   1.351       .  A
N36          C44   1.349       .  A
N37          C42   1.354       .  A
N37          C41   1.353       .  A
N37          H68   1.042       .  S
N38          C45   1.351       .  A
N38          C46   1.354       .  A
C39          C47   1.389       .  A
C39          C55   1.419       .  A
C40          C56   1.412       .  A
C40          C48   1.385       .  A
C41          C49   1.383       .  A
C41          C58   1.412       .  A
C42          C57   1.423       .  A
C42          C50   1.391       .  A
C43          C55   1.416       .  A
C43          C51   1.390       .  A
C44          C58   1.407       .  A
C44          C52   1.383       .  A
C45          C53   1.383       .  A
C45          C56   1.412       .  A
C46          C54   1.391       .  A
C46          C57   1.422       .  A
C47          C48   1.378       .  A
C47          H59   1.081       .  S
C48          H60   1.082       .  S
C49          C50   1.379       .  A
C49          H61   1.082       .  S
C50          H62   1.081       .  S
C51          C52   1.373       .  A
C51          H63   1.081       .  S
C52          H64   1.082       .  S
C53          C54   1.376       .  A
C53          H65   1.082       .  S
C54          H66   1.080       .  S
C55         C300   1.497       .  S
C56         C878   1.494       .  S
C57         C383   1.502       .  S
C58         C846   1.490       .  S
N69          C74   1.354       .  A
N69          C73   1.352       .  A
N69         H101   1.040       .  S
N70          C77   1.353       .  A
N70          C78   1.353       .  A
N71          C76   1.355       .  A
N71          C75   1.355       .  A
N71         H102   1.040       .  S
N72          C79   1.350       .  A
N72          C80   1.349       .  A
C73          C81   1.385       .  A
C73          C89   1.411       .  A
C74          C90   1.417       .  A
C74          C82   1.389       .  A
C75          C83   1.391       .  A
C75          C92   1.425   1_556  A
C76          C91   1.415       .  A
C76          C84   1.384       .  A
C77          C89   1.412       .  A
C77          C85   1.382       .  A
C78          C92   1.422       .  A
C78          C86   1.390       .  A
C79          C87   1.387       .  A
C79          C90   1.413   1_556  A
C80          C88   1.386       .  A
C80          C91   1.408       .  A
C81          C82   1.377       .  A
C81          H93   1.082       .  S
C82          H94   1.081       .  S
C83          C84   1.374       .  A
C83          H95   1.080       .  S
C84          H96   1.081       .  S
C85          C86   1.376       .  A
C85          H97   1.082       .  S
C86          H98   1.080       .  S
C87          C88   1.370       .  A
C87          H99   1.081       .  S
C88         H100   1.081       .  S
C89         C805   1.496       .  S
C90         C313   1.491       .  S
C91         C773   1.490       .  S
C92         C286   1.503       .  S
N103        C108   1.352       .  A
N103        C107   1.354       .  A
N103        H135   1.042       .  S
N104        C111   1.353       .  A
N104        C112   1.351       .  A
N105        C110   1.360       .  A
N105        C109   1.358       .  A
N105        H136   1.040       .  S
N106        C113   1.354       .  A
N106        C114   1.354       .  A
C107        C115   1.387       .  A
C107        C123   1.414       .  A
C108        C124   1.414       .  A
C108        C116   1.387       .  A
C109        C117   1.383       .  A
C109        C126   1.419       .  A
C110        C125   1.429       .  A
C110        C118   1.391       .  A
C111        C123   1.418       .  A
C111        C119   1.388       .  A
C112        C126   1.412       .  A
C112        C120   1.384       .  A
C113        C121   1.383       .  A
C113        C124   1.414       .  A
C114        C122   1.390       .  A
C114        C125   1.423       .  A
C115        C116   1.372       .  A
C115        H127   1.081       .  S
C116        H128   1.082       .  S
C117        C118   1.370       .  A
C117        H129   1.082       .  S
C118        H130   1.079       .  S
C119        C120   1.368       .  A
C119        H131   1.081       .  S
C120        H132   1.083       .  S
C121        C122   1.369       .  A
C121        H133   1.082       .  S
C122        H134   1.079       .  S
C123        C298   1.503       .  S
C124        C782   1.497       .  S
C125        C326   1.512       .  S
C126        C814   1.496       .  S
N137        C142   1.354       .  A
N137        C141   1.358       .  A
N137        H169   1.042       .  S
N138        C145   1.353       .  A
N138        C146   1.352       .  A
N139        C144   1.353       .  A
N139        C143   1.352       .  A
N139        H170   1.043       .  S
N140        C147   1.350       .  A
N140        C148   1.354       .  A
C141        C149   1.392       .  A
C141        C157   1.429   1_554  A
C142        C158   1.414       .  A
C142        C150   1.383       .  A
C143        C151   1.386       .  A
C143        C160   1.414       .  A
C144        C159   1.418   1_556  A
C144        C152   1.389       .  A
C145        C157   1.421       .  A
C145        C153   1.390       .  A
C146        C160   1.414       .  A
C146        C154   1.384       .  A
C147        C155   1.384       .  A
C147        C158   1.409       .  A
C148        C156   1.389       .  A
C148        C159   1.419       .  A
C149        C150   1.375       .  A
C149        H161   1.079       .  S
C150        H162   1.082       .  S
C151        C152   1.378       .  A
C151        H163   1.082       .  S
C152        H164   1.082       .  S
C153        C154   1.376       .  A
C153        H165   1.081       .  S
C154        H166   1.082       .  S
C155        C156   1.371       .  A
C155        H167   1.082       .  S
C156        H168   1.079       .  S
C157        C342   1.510       .  S
C158        C741   1.489       .  S
C159        C312   1.497       .  S
C160        C709   1.502       .  S
N171        C176   1.353       .  A
N171        C175   1.355       .  A
N171        H203   1.042       .  S
N172        C179   1.352       .  A
N172        C180   1.351       .  A
N173        C178   1.353       .  A
N173        C177   1.353       .  A
N173        H204   1.043       .  S
N174        C181   1.352       .  A
N174        C182   1.353       .  A
C175        C183   1.391       .  A
C175        C191   1.423       .  A
C176        C192   1.413       .  A
C176        C184   1.384       .  A
C177        C185   1.386       .  A
C177        C194   1.417       .  A
C178        C193   1.420       .  A
C178        C186   1.389       .  A
C179        C191   1.417       .  A
C179        C187   1.388       .  A
C180        C194   1.413       .  A
C180        C188   1.384       .  A
C181        C189   1.383       .  A
C181        C192   1.410       .  A
C182        C190   1.390       .  A
C182        C193   1.420       .  A
C183        C184   1.376       .  A
C183        H195   1.080       .  S
C184        H196   1.082       .  S
C185        C186   1.381       .  A
C185        H197   1.082       .  S
C186        H198   1.082       .  S
C187        C188   1.376       .  A
C187        H199   1.081       .  S
C188        H200   1.082       .  S
C189        C190   1.371       .  A
C189        H201   1.081       .  S
C190        H202   1.080       .  S
C191        C327   1.500       .  S
C192        C718   1.490       .  S
C193        C353   1.499       .  S
C194        C750   1.503       .  S
N205        C210   1.355       .  A
N205        C209   1.353       .  A
N205        H237   1.042       .  S
N206        C213   1.351       .  A
N206        C214   1.353       .  A
N207        C212   1.351       .  A
N207        C211   1.353       .  A
N207        H238   1.043       .  S
N208        C215   1.351       .  A
N208        C216   1.351       .  A
C209        C217   1.383       .  A
C209        C225   1.413       .  A
C210        C226   1.424       .  A
C210        C218   1.391       .  A
C211        C219   1.391       .  A
C211        C228   1.420   1_554  A
C212        C227   1.408       .  A
C212        C220   1.383       .  A
C213        C225   1.410       .  A
C213        C221   1.383       .  A
C214        C228   1.420       .  A
C214        C222   1.390       .  A
C215        C223   1.391       .  A
C215        C226   1.420   1_554  A
C216        C224   1.382       .  A
C216        C227   1.407       .  A
C217        C218   1.380       .  A
C217        H229   1.082       .  S
C218        H230   1.081       .  S
C219        C220   1.376       .  A
C219        H231   1.080       .  S
C220        H232   1.082       .  S
C221        C222   1.374       .  A
C221        H233   1.083       .  S
C222        H234   1.081       .  S
C223        C224   1.374       .  A
C223        H235   1.081       .  S
C224        H236   1.082       .  S
C225        C645   1.494       .  S
C226        C340   1.499       .  S
C227        C677   1.488       .  S
C228        C369   1.499       .  S
N239        C244   1.352       .  A
N239        C243   1.355       .  A
N239        H271   1.042       .  S
N240        C247   1.352       .  A
N240        C248   1.352       .  A
N241        C246   1.354       .  A
N241        C245   1.352       .  A
N241        H272   1.042       .  S
N242        C249   1.350       .  A
N242        C250   1.354       .  A
C243        C251   1.390       .  A
C243        C259   1.422       .  A
C244        C260   1.413       .  A
C244        C252   1.385       .  A
C245        C253   1.384       .  A
C245        C262   1.411       .  A
C246        C261   1.422       .  A
C246        C254   1.391       .  A
C247        C259   1.421       .  A
C247        C255   1.391       .  A
C248        C262   1.408       .  A
C248        C256   1.382       .  A
C249        C257   1.383       .  A
C249        C260   1.410       .  A
C250        C258   1.389       .  A
C250        C261   1.419       .  A
C251        C252   1.379       .  A
C251        H263   1.081       .  S
C252        H264   1.082       .  S
C253        C254   1.377       .  A
C253        H265   1.082       .  S
C254        H266   1.081       .  S
C255        C256   1.373       .  A
C255        H267   1.081       .  S
C256        H268   1.082       .  S
C257        C258   1.374       .  A
C257        H269   1.083       .  S
C258        H270   1.080       .  S
C259        C382   1.500       .  S
C260        C686   1.491       .  S
C261        C355   1.501       .  S
C262        C654   1.491       .  S
O273       Cu281   2.007       .  S
O273        C283   1.277       .  A
O274       Cu281   2.022       .  S
O274        C284   1.279       .  A
O275       Cu281   2.016       .  S
O275        C285   1.278       .  A
O276       Cu281   2.003       .  S
O276        C286   1.277   1_556  A
O277       Cu282   2.017       .  S
O277        C286   1.278       .  A
O278       Cu282   2.004       .  S
O278        C285   1.278   1_554  A
O279       Cu282   2.009       .  S
O279        C284   1.278   1_554  A
O280       Cu282   2.018       .  S
O280        C283   1.279   1_554  A
Cu281      Cu282   2.360   1_556  S
C283        C581   1.479       .  S
C285        C622   1.491       .  S
O287       Cu295   2.009       .  S
O287        C297   1.278       .  A
O288       Cu295   2.018       .  S
O288        C298   1.279       .  A
O289       Cu295   2.015       .  S
O289        C299   1.278       .  A
O290       Cu295   2.002       .  S
O290        C300   1.277       .  A
O291       Cu296   2.014       .  S
O291        C300   1.278       .  A
O292       Cu296   2.014       .  S
O292        C299   1.279       .  A
O293       Cu296   2.000       .  S
O293        C298   1.277       .  A
O294       Cu296   2.007       .  S
O294        C297   1.277       .  A
Cu295      Cu296   2.364       .  S
C297        C558   1.475       .  S
C299        C517   1.486       .  S
O301       Cu309   2.011       .  S
O301        C311   1.278       .  A
O302       Cu309   2.007       .  S
O302        C312   1.278   1_556  A
O303       Cu309   2.007       .  S
O303        C313   1.279   1_556  A
O304       Cu309   2.004       .  S
O304        C314   1.277       .  A
O305       Cu310   2.012       .  S
O305        C314   1.278   1_554  A
O306       Cu310   1.998       .  S
O306        C313   1.276       .  A
O307       Cu310   2.016       .  S
O307        C312   1.278       .  A
O308       Cu310   2.011       .  S
O308        C311   1.278   1_554  A
Cu309      Cu310   2.367   1_556  S
C311        C494   1.476       .  S
C314        C613   1.473       .  S
O315       Cu323   2.012       .  S
O315        C325   1.278       .  A
O316       Cu323   2.023       .  S
O316        C326   1.280       .  A
O317       Cu323   2.009       .  S
O317        C327   1.277       .  A
O318       Cu323   2.011       .  S
O318        C328   1.278       .  A
O319       Cu324   2.016       .  S
O319        C328   1.278       .  A
O320       Cu324   2.015       .  S
O320        C327   1.279       .  A
O321       Cu324   2.006       .  S
O321        C326   1.276       .  A
O322       Cu324   2.013       .  S
O322        C325   1.278       .  A
Cu323      Cu324   2.362       .  S
C325        C549   1.482       .  S
C328        C453   1.481       .  S
O329       Cu337   1.993       .  S
O329        C339   1.275   1_554  A
O330       Cu337   2.006       .  S
O330        C340   1.278   1_554  A
O331       Cu337   2.003       .  S
O331        C341   1.277   1_554  A
O332       Cu337   2.012       .  S
O332        C342   1.277   1_554  A
O333       Cu338   2.023       .  S
O333        C342   1.279       .  A
O334       Cu338   2.024       .  S
O334        C341   1.280       .  A
O335       Cu338   2.014       .  S
O335        C340   1.278       .  A
O336       Cu338   2.024       .  S
O336        C339   1.280       .  A
Cu337      Cu338   2.365   1_554  S
C339        C421   1.473       .  S
C341        C485   1.480       .  S
O343       Cu351   2.016       .  S
O343        C353   1.278       .  A
O344       Cu351   2.022       .  S
O344        C354   1.279       .  A
O345       Cu351   2.019       .  S
O345        C355   1.279       .  A
O346       Cu351   2.013       .  S
O346        C356   1.279       .  A
O347       Cu352   2.015       .  S
O347        C356   1.278       .  A
O348       Cu352   2.005       .  S
O348        C355   1.277       .  A
O349       Cu352   2.005       .  S
O349        C354   1.277       .  A
O350       Cu352   2.009       .  S
O350        C353   1.278       .  A
Cu351      Cu352   2.362       .  S
C354        C462   1.480       .  S
C356        C398   1.480       .  S
O357       Cu365   2.008       .  S
O357        C367   1.278   1_556  A
O358       Cu365   2.018       .  S
O358        C368   1.279       .  A
O359       Cu365   2.004       .  S
O359        C369   1.276       .  A
O360       Cu365   1.991       .  S
O360        C370   1.275   1_556  A
O361       Cu366   2.022       .  S
O361        C370   1.280       .  A
O362       Cu366   2.012       .  S
O362        C369   1.278   1_554  A
O363       Cu366   2.003       .  S
O363        C368   1.277   1_554  A
O364       Cu366   2.017       .  S
O364        C367   1.278       .  A
Cu365      Cu366   2.364   1_556  S
C367        C590   1.480       .  S
C370        C430   1.484       .  S
O371       Cu379   2.007       .  S
O371        C381   1.277       .  A
O372       Cu379   1.994       .  S
O372        C382   1.276       .  A
O373       Cu379   2.004       .  S
O373        C383   1.278       .  A
O374       Cu379   2.015       .  S
O374        C384   1.278       .  A
O375       Cu380   2.014       .  S
O375        C384   1.278       .  A
O376       Cu380   2.020       .  S
O376        C383   1.279       .  A
O377       Cu380   2.026       .  S
O377        C382   1.279       .  A
O378       Cu380   2.016       .  S
O378        C381   1.279       .  A
Cu379      Cu380   2.366       .  S
C381        C389   1.477       .  S
C384        C526   1.482       .  S
C385        C386   1.403       .  A
C385        C390   1.406   1_545  A
C385        H395   1.084       .  S
C386        C387   1.411       .  A
C386        C391   1.485       .  S
C387        C388   1.403   1_545  A
C387        C392   1.507       .  S
C388        C389   1.403       .  A
C388        H393   1.084       .  S
C389        C390   1.418       .  A
C390        C394   1.508       .  S
C391        C396   1.411       .  A
C391        C400   1.403       .  A
C392        H408   1.110       .  S
C392        H409   1.110       .  S
C392        H410   1.111       .  S
C394        H405   1.111       .  S
C394        H406   1.110       .  S
C394        H407   1.107       .  S
C396        C397   1.403       .  A
C396        C401   1.507       .  S
C397        C398   1.404       .  A
C397        H402   1.084       .  S
C398        C399   1.418       .  A
C399        C400   1.406       .  A
C399        C403   1.508       .  S
C400        H404   1.084       .  S
C401        H411   1.111       .  S
C401        H412   1.110       .  S
C401        H413   1.110       .  S
C403        H414   1.110       .  S
C403        H415   1.106       .  S
C403        H416   1.111       .  S
C417        C418   1.402   1_556  A
C417        C422   1.404       .  A
C417        H427   1.085       .  S
C418        C419   1.410       .  A
C418        C423   1.479       .  S
C419        C420   1.402       .  A
C419        C424   1.507       .  S
C420        C421   1.404   1_554  A
C420        H425   1.084       .  S
C421        C422   1.415       .  A
C422        C426   1.508       .  S
C423        C428   1.410       .  A
C423        C432   1.398   1_554  A
C424        H440   1.110       .  S
C424        H441   1.109       .  S
C424        H442   1.111       .  S
C426        H437   1.111       .  S
C426        H438   1.110       .  S
C426        H439   1.107       .  S
C428        C429   1.405   1_545  A
C428        C433   1.507       .  S
C429        C430   1.406       .  A
C429        H434   1.084       .  S
C430        C431   1.420   1_554  A
C431        C432   1.402   1_565  A
C431        C435   1.509       .  S
C432        H436   1.084       .  S
C433        H443   1.111       .  S
C433        H444   1.110       .  S
C433        H445   1.109       .  S
C435        H446   1.109       .  S
C435        H447   1.111       .  S
C435        H448   1.111       .  S
C449        C450   1.400       .  A
C449        C454   1.404       .  A
C449        H459   1.085       .  S
C450        C451   1.411       .  A
C450        C455   1.484   1_655  S
C451        C452   1.405       .  A
C451        C456   1.506       .  S
C452        C453   1.405       .  A
C452        H457   1.084       .  S
C453        C454   1.419       .  A
C454        C458   1.508       .  S
C455        C460   1.411       .  A
C455        C464   1.400       .  A
C456        H472   1.110   1_655  S
C456        H473   1.110   1_655  S
C456        H474   1.111       .  S
C458        H469   1.111       .  S
C458        H470   1.110       .  S
C458        H471   1.104       .  S
C460        C461   1.406       .  A
C460        C465   1.506       .  S
C461        C462   1.404       .  A
C461        H466   1.084       .  S
C462        C463   1.419       .  A
C463        C464   1.404       .  A
C463        C467   1.509       .  S
C464        H468   1.085       .  S
C465        H475   1.111       .  S
C465        H476   1.110       .  S
C465        H477   1.110       .  S
C467        H478   1.110       .  S
C467        H479   1.106       .  S
C467        H480   1.111       .  S
C481        C482   1.400   1_554  A
C481        C486   1.403       .  A
C481        H491   1.085       .  S
C482        C483   1.411       .  A
C482        C487   1.483   1_455  S
C483        C484   1.406       .  A
C483        C488   1.506       .  S
C484        C485   1.405       .  A
C484        H489   1.084       .  S
C485        C486   1.418   1_556  A
C486        C490   1.509       .  S
C487        C492   1.411       .  A
C487        C496   1.402   1_556  A
C488        H504   1.110       .  S
C488        H505   1.110       .  S
C488        H506   1.111       .  S
C490        H501   1.111       .  S
C490        H502   1.110       .  S
C490        H503   1.107       .  S
C492        C493   1.404       .  A
C492        C497   1.506       .  S
C493        C494   1.404       .  A
C493        H498   1.084       .  S
C494        C495   1.417   1_556  A
C495        C496   1.404       .  A
C495        C499   1.509       .  S
C496        H500   1.084       .  S
C497        H507   1.111       .  S
C497        H508   1.110       .  S
C497        H509   1.110       .  S
C499        H510   1.110       .  S
C499        H511   1.107       .  S
C499        H512   1.111       .  S
C513        C514   1.402       .  A
C513        C518   1.408       .  A
C513        H523   1.084       .  S
C514        C515   1.410       .  A
C514        C519   1.484   1_655  S
C515        C516   1.403       .  A
C515        C520   1.506       .  S
C516        C517   1.406       .  A
C516        H521   1.084       .  S
C517        C518   1.418       .  A
C518        C522   1.507       .  S
C519        C524   1.411       .  A
C519        C528   1.401       .  A
C520        H536   1.110       .  S
C520        H537   1.110       .  S
C520        H538   1.111       .  S
C522        H533   1.109       .  S
C522        H534   1.111       .  S
C522        H535   1.111       .  S
C524        C525   1.406       .  A
C524        C529   1.506       .  S
C525        C526   1.406       .  A
C525        H530   1.084       .  S
C526        C527   1.419       .  A
C527        C528   1.404       .  A
C527        C531   1.509       .  S
C528        H532   1.085       .  S
C529        H539   1.111       .  S
C529        H540   1.110   1_455  S
C529        H541   1.110   1_455  S
C531        H542   1.111       .  S
C531        H543   1.106       .  S
C531        H544   1.110       .  S
C545        C546   1.400       .  A
C545        C550   1.404       .  A
C545        H555   1.085       .  S
C546        C547   1.410       .  A
C546        C551   1.482       .  S
C547        C548   1.404       .  A
C547        C552   1.506       .  S
C548        C549   1.406       .  A
C548        H553   1.084       .  S
C549        C550   1.420       .  A
C550        C554   1.509       .  S
C551        C556   1.411       .  A
C551        C560   1.401       .  A
C552        H568   1.110       .  S
C552        H569   1.110       .  S
C552        H570   1.111       .  S
C554        H565   1.111       .  S
C554        H566   1.110       .  S
C554        H567   1.106       .  S
C556        C557   1.405   1_545  A
C556        C561   1.506       .  S
C557        C558   1.404       .  A
C557        H562   1.084       .  S
C558        C559   1.417       .  A
C559        C560   1.403   1_565  A
C559        C563   1.509       .  S
C560        H564   1.084       .  S
C561        H571   1.111       .  S
C561        H572   1.110       .  S
C561        H573   1.110       .  S
C563        H574   1.110       .  S
C563        H575   1.107       .  S
C563        H576   1.111       .  S
C577        C578   1.402       .  A
C577        C582   1.406       .  A
C577        H587   1.084       .  S
C578        C579   1.411   1_554  A
C578        C583   1.484   1_655  S
C579        C580   1.403       .  A
C579        C584   1.507       .  S
C580        C581   1.404       .  A
C580        H585   1.084       .  S
C581        C582   1.417   1_556  A
C582        C586   1.508       .  S
C583        C588   1.410   1_554  A
C583        C592   1.402       .  A
C584        H600   1.110       .  S
C584        H601   1.110       .  S
C584        H602   1.111       .  S
C586        H597   1.111       .  S
C586        H598   1.110       .  S
C586        H599   1.107       .  S
C588        C589   1.403       .  A
C588        C593   1.506       .  S
C589        C590   1.405   1_556  A
C589        H594   1.084       .  S
C590        C591   1.418       .  A
C591        C592   1.406       .  A
C591        C595   1.508       .  S
C592        H596   1.085       .  S
C593        H603   1.111       .  S
C593        H604   1.110       .  S
C593        H605   1.110       .  S
C595        H606   1.110       .  S
C595        H607   1.106       .  S
C595        H608   1.111       .  S
C609        C610   1.402   1_554  A
C609        C614   1.403       .  A
C609        H619   1.084       .  S
C610        C611   1.411       .  A
C610        C615   1.481       .  S
C611        C612   1.403       .  A
C611        C616   1.506       .  S
C612        C613   1.403       .  A
C612        H617   1.084       .  S
C613        C614   1.415   1_556  A
C614        C618   1.508       .  S
C615        C620   1.408   1_556  A
C615        C624   1.400       .  A
C616        H632   1.110       .  S
C616        H633   1.110       .  S
C616        H634   1.111       .  S
C618        H629   1.110       .  S
C618        H630   1.111       .  S
C618        H631   1.107       .  S
C620        C621   1.403   1_545  A
C620        C625   1.507       .  S
C621        C622   1.409   1_554  A
C621        H626   1.084       .  S
C622        C623   1.421       .  A
C623        C624   1.406   1_565  A
C623        C627   1.508       .  S
C624        H628   1.084       .  S
C625        H635   1.111       .  S
C625        H636   1.110       .  S
C625        H637   1.110       .  S
C627        H638   1.111   1_565  S
C627        H639   1.110       .  S
C627        H640   1.110       .  S
C641        C642   1.402       .  A
C641        C646   1.405       .  A
C641        H651   1.084       .  S
C642        C643   1.412       .  A
C642        C647   1.487       .  S
C643        C644   1.406       .  A
C643        C648   1.506       .  S
C644        C645   1.406       .  A
C644        H649   1.084       .  S
C645        C646   1.417       .  A
C646        C650   1.507       .  S
C647        C652   1.413       .  A
C647        C656   1.402       .  A
C648        H664   1.110       .  S
C648        H665   1.110       .  S
C648        H666   1.111       .  S
C650        H661   1.110       .  S
C650        H662   1.110       .  S
C650        H663   1.107       .  S
C652        C653   1.406       .  A
C652        C657   1.506       .  S
C653        C654   1.404       .  A
C653        H658   1.084       .  S
C654        C655   1.416       .  A
C655        C656   1.404       .  A
C655        C659   1.508       .  S
C656        H660   1.084       .  S
C657        H667   1.111       .  S
C657        H668   1.110       .  S
C657        H669   1.110       .  S
C659        H670   1.110       .  S
C659        H671   1.108       .  S
C659        H672   1.110       .  S
C673        C674   1.402       .  A
C673        C678   1.403       .  A
C673        H683   1.084       .  S
C674        C675   1.413       .  A
C674        C679   1.484       .  S
C675        C676   1.404       .  A
C675        C680   1.507       .  S
C676        C677   1.403       .  A
C676        H681   1.084       .  S
C677        C678   1.416       .  A
C678        C682   1.507       .  S
C679        C684   1.411       .  A
C679        C688   1.402       .  A
C680        H696   1.109       .  S
C680        H697   1.110       .  S
C680        H698   1.111       .  S
C682        H693   1.110       .  S
C682        H694   1.110       .  S
C682        H695   1.108       .  S
C684        C685   1.404       .  A
C684        C689   1.506       .  S
C685        C686   1.406       .  A
C685        H690   1.084       .  S
C686        C687   1.416       .  A
C687        C688   1.402       .  A
C687        C691   1.508       .  S
C688        H692   1.085       .  S
C689        H699   1.111       .  S
C689        H700   1.110       .  S
C689        H701   1.110       .  S
C691        H702   1.110       .  S
C691        H703   1.107       .  S
C691        H704   1.111       .  S
C705        C706   1.401       .  A
C705        C710   1.405       .  A
C705        H715   1.084       .  S
C706        C707   1.411       .  A
C706        C711   1.484       .  S
C707        C708   1.404       .  A
C707        C712   1.509       .  S
C708        C709   1.409       .  A
C708        H713   1.084       .  S
C709        C710   1.420       .  A
C710        C714   1.508       .  S
C711        C716   1.414       .  A
C711        C720   1.402       .  A
C712        H728   1.111       .  S
C712        H729   1.107       .  S
C712        H730   1.111       .  S
C714        H725   1.110       .  S
C714        H726   1.111       .  S
C714        H727   1.107       .  S
C716        C717   1.403       .  A
C716        C721   1.509       .  S
C717        C718   1.403       .  A
C717        H722   1.084       .  S
C718        C719   1.416       .  A
C719        C720   1.404       .  A
C719        C723   1.508       .  S
C720        H724   1.084       .  S
C721        H731   1.111       .  S
C721        H732   1.110       .  S
C721        H733   1.107       .  S
C723        H734   1.110       .  S
C723        H735   1.108       .  S
C723        H736   1.110       .  S
C737        C738   1.406       .  A
C737        C742   1.405       .  A
C737        H747   1.084       .  S
C738        C739   1.416       .  A
C738        C743   1.491       .  S
C739        C740   1.403       .  A
C739        C744   1.508       .  S
C740        C741   1.401       .  A
C740        H745   1.084       .  S
C741        C742   1.414       .  A
C742        C746   1.507       .  S
C743        C748   1.413       .  A
C743        C752   1.403       .  A
C744        H760   1.108       .  S
C744        H761   1.110       .  S
C744        H762   1.111       .  S
C746        H757   1.110       .  S
C746        H758   1.110       .  S
C746        H759   1.109       .  S
C748        C749   1.405       .  A
C748        C753   1.508       .  S
C749        C750   1.407       .  A
C749        H754   1.084       .  S
C750        C751   1.421       .  A
C751        C752   1.404       .  A
C751        C755   1.509       .  S
C752        H756   1.084       .  S
C753        H763   1.111       .  S
C753        H764   1.108       .  S
C753        H765   1.110       .  S
C755        H766   1.110       .  S
C755        H767   1.107       .  S
C755        H768   1.111       .  S
C769        C770   1.403       .  A
C769        C774   1.402       .  A
C769        H779   1.084       .  S
C770        C771   1.414       .  A
C770        C775   1.486       .  S
C771        C772   1.402       .  A
C771        C776   1.508       .  S
C772        C773   1.403       .  A
C772        H777   1.084       .  S
C773        C774   1.417       .  A
C774        C778   1.508       .  S
C775        C780   1.414       .  A
C775        C784   1.402       .  A
C776        H792   1.108       .  S
C776        H793   1.111       .  S
C776        H794   1.111       .  S
C778        H789   1.110       .  S
C778        H790   1.110       .  S
C778        H791   1.108       .  S
C780        C781   1.403       .  A
C780        C785   1.508       .  S
C781        C782   1.406       .  A
C781        H786   1.084       .  S
C782        C783   1.418       .  A
C783        C784   1.401       .  A
C783        C787   1.508       .  S
C784        H788   1.084       .  S
C785        H795   1.111       .  S
C785        H796   1.108       .  S
C785        H797   1.110       .  S
C787        H798   1.111       .  S
C787        H799   1.107       .  S
C787        H800   1.111       .  S
C801        C802   1.402       .  A
C801        C806   1.405       .  A
C801        H811   1.084       .  S
C802        C803   1.410       .  A
C802        C807   1.484       .  S
C803        C804   1.404       .  A
C803        C808   1.507       .  S
C804        C805   1.406       .  A
C804        H809   1.084       .  S
C805        C806   1.418       .  A
C806        C810   1.507       .  S
C807        C812   1.411       .  A
C807        C816   1.403       .  A
C808        H824   1.110       .  S
C808        H825   1.109       .  S
C808        H826   1.111       .  S
C810        H821   1.110       .  S
C810        H822   1.111       .  S
C810        H823   1.107       .  S
C812        C813   1.403       .  A
C812        C817   1.507       .  S
C813        C814   1.406       .  A
C813        H818   1.084       .  S
C814        C815   1.416       .  A
C815        C816   1.405       .  A
C815        C819   1.507       .  S
C816        H820   1.084       .  S
C817        H827   1.111       .  S
C817        H828   1.110       .  S
C817        H829   1.109       .  S
C819        H830   1.110       .  S
C819        H831   1.108       .  S
C819        H832   1.110       .  S
C833        C834   1.402       .  A
C833        C838   1.405       .  A
C833        H843   1.084       .  S
C834        C835   1.410       .  A
C834        C839   1.483       .  S
C835        C836   1.404       .  A
C835        C840   1.507       .  S
C836        C837   1.406       .  A
C836        H841   1.084       .  S
C837        C838   1.417       .  A
C838        C842   1.508       .  S
C839        C844   1.411       .  A
C839        C848   1.402       .  A
C840        H856   1.110       .  S
C840        H857   1.109       .  S
C840        H858   1.111       .  S
C842        H853   1.110       .  S
C842        H854   1.110       .  S
C842        H855   1.107       .  S
C844        C845   1.404       .  A
C844        C849   1.506       .  S
C845        C846   1.405       .  A
C845        H850   1.084       .  S
C846        C847   1.416       .  A
C847        C848   1.404       .  A
C847        C851   1.507       .  S
C848        H852   1.084       .  S
C849        H859   1.111       .  S
C849        H860   1.110       .  S
C849        H861   1.109       .  S
C851        H862   1.110       .  S
C851        H863   1.107       .  S
C851        H864   1.110       .  S
C865        C866   1.401       .  A
C865        C870   1.404       .  A
C865        H875   1.084       .  S
C866        C867   1.411       .  A
C866        C871   1.482       .  S
C867        C868   1.404       .  A
C867        C872   1.507       .  S
C868        C869   1.405       .  A
C868        H873   1.084       .  S
C869        C870   1.417       .  A
C870        C874   1.507       .  S
C871        C876   1.411       .  A
C871        C880   1.401       .  A
C872        H888   1.110       .  S
C872        H889   1.109       .  S
C872        H890   1.111       .  S
C874        H885   1.110       .  S
C874        H886   1.111       .  S
C874        H887   1.107       .  S
C876        C877   1.404       .  A
C876        C881   1.507       .  S
C877        C878   1.406       .  A
C877        H882   1.084       .  S
C878        C879   1.418       .  A
C879        C880   1.403       .  A
C879        C883   1.508       .  S
C880        H884   1.084       .  S
C881        H891   1.111       .  S
C881        H892   1.110       .  S
C881        H893   1.109       .  S
C883        H894   1.110       .  S
C883        H895   1.107       .  S
C883        H896   1.110       .  S
