geometry optimzed in LAMMPS
_audit_creation_date              2020-12-01 
_audit_creation_method            'lammps2cif' 
_symmetry_space_group_name_H-M    'P1' 
_symmetry_Int_Tables_number       1 
_symmetry_cell_setting            triclinic 
loop_ 
_symmetry_equiv_pos_as_xyz 
  x,y,z 
_cell_length_a                    32.03536484 
_cell_length_b                    32.02760041123631 
_cell_length_c                    34.75727759159576 
_cell_angle_alpha                 89.94436012409192 
_cell_angle_beta                  89.8429281160756 
_cell_angle_gamma                 90.03445570013183 
loop_ 
_atom_site_label 
_atom_site_type_symbol 
_atom_site_fract_x 
_atom_site_fract_y 
_atom_site_fract_z 
_atom_site_charge 
O1          O  0.07587225  0.61888952  0.20196380    -0.83800
O2          O  0.13159613  0.55759962  0.22065359    -0.80900
C3          C  0.16075633  0.56382682  0.19677629     0.99600
O4          O  0.18503699  0.59448138  0.20031043    -0.80900
O5          O  0.21115503  0.67357983  0.21904974    -0.83500
C6          C  0.19079698  0.69668298  0.19635889     1.04200
O7          O  0.15220311  0.70220593  0.20078246    -0.76300
O8          O  0.07107454  0.68439147  0.22014021    -0.76500
C9          C  0.06118951  0.65497234  0.19770747     1.04100
O10         O  0.05733054  0.63259003  0.28186708    -0.83800
O11         O  0.11924089  0.57710158  0.30058706    -0.80900
C12         C  0.15525169  0.56193801  0.30388320     0.99700
O13         O  0.18405362  0.57149906  0.28054244    -0.80900
O14         O  0.20221845  0.65281923  0.29919926    -0.83500
C15         C  0.19656580  0.69142919  0.30351264     1.04100
O16         O  0.17333522  0.71177622  0.28088676    -0.76300
O17         O  0.09406044  0.68682560  0.30026867    -0.76500
C18         C  0.06341175  0.66268274  0.30465824     1.04100
Cr19       Cr  0.09901344  0.59957388  0.25124818     1.93700
Cr20       Cr  0.19153598  0.62420463  0.24983029     1.93200
Cr21       Cr  0.12378300  0.69220298  0.25051845     1.39100
O22         O  0.13811502  0.63871606  0.25056926    -1.21600
O23         O  0.35417600  0.93046326  0.02788236    -0.83800
O24         O  0.40959179  0.86964149  0.04882194    -0.80900
C25         C  0.42421463  0.83367174  0.05410428     0.99600
O26         O  0.41471047  0.80372740  0.03208416    -0.80900
O27         O  0.33304971  0.78637924  0.05000675    -0.83500
C28         C  0.29437585  0.79204000  0.05359911     1.04200
O29         O  0.27453484  0.81459391  0.03006037    -0.76300
O30         O  0.30016637  0.89415149  0.04779456    -0.76500
C31         C  0.32455456  0.92473002  0.05137037     1.04100
O32         O  0.36829404  0.90933416  0.44850325    -0.83800
O33         O  0.42975740  0.85423082  0.46947629    -0.80900
C34         C  0.42422799  0.82364975  0.44713098     0.99700
O35         O  0.39357684  0.79949075  0.45144121    -0.80900
O36         O  0.31383998  0.77498740  0.46964297    -0.83500
C37         C  0.29112699  0.79483312  0.44619592     1.04100
O38         O  0.28532827  0.83351684  0.44971677    -0.76300
O39         O  0.30301250  0.91529406  0.46706950    -0.76500
C40         C  0.33237208  0.92442865  0.44415894     1.04100
Cr41       Cr  0.38742055  0.88786722  0.49868324     1.93700
Cr42       Cr  0.36265901  0.79525038  0.50069075     1.93200
Cr43       Cr  0.29485455  0.86327768  0.49871582     1.39100
O44         O  0.34830358  0.84873808  0.49933116    -1.21600
O45         O  0.87052914  0.57849795  0.44999297    -0.83800
O46         O  0.93115172  0.63420188  0.47124309    -0.80900
C47         C  0.92527405  0.66407123  0.44813087     0.99600
O48         O  0.89426576  0.68786031  0.45180503    -0.80900
O49         O  0.81429317  0.71215923  0.46960679    -0.83500
C50         C  0.79166351  0.69193299  0.44640100     1.04200
O51         O  0.78626617  0.65322606  0.45022826    -0.76300
O52         O  0.80504788  0.57193886  0.46794429    -0.76500
C53         C  0.83473070  0.56326234  0.44526217     1.04100
O54         O  0.85567577  0.55719697  0.02918627    -0.83800
O55         O  0.90987519  0.61911073  0.05036343    -0.80900
C56         C  0.92431570  0.65523334  0.05512535     0.99700
O57         O  0.91503811  0.68474488  0.03251661    -0.80900
O58         O  0.83329657  0.70171462  0.05004326    -0.83500
C59         C  0.79471515  0.69545854  0.05379962     1.04100
O60         O  0.77512317  0.67232734  0.03056007    -0.76300
O61         O  0.80131090  0.59310029  0.04861918    -0.76500
C62         C  0.82566559  0.56255613  0.05230826     1.04100
Cr63       Cr  0.88877030  0.60024816  0.50019213     1.93700
Cr64       Cr  0.86315128  0.69252638  0.00091826     1.93200
Cr65       Cr  0.79600424  0.62381387  0.49940906     1.39100
O66         O  0.84925764  0.63891614  0.00014944    -1.21600
O67         O  0.63216797  0.93002100  0.22193666    -0.83800
O68         O  0.57608972  0.86920268  0.20247270    -0.80900
C69         C  0.56123415  0.83325081  0.19764571     0.99600
O70         O  0.57107923  0.80337263  0.21965836    -0.80900
O71         O  0.65232171  0.78564239  0.20044496    -0.83500
C72         C  0.69096348  0.79107224  0.19621414     1.04200
O73         O  0.71132408  0.81386708  0.21916644    -0.76300
O74         O  0.68569933  0.89345459  0.20146929    -0.76500
C75         C  0.66145576  0.92414865  0.19812638     1.04100
O76         O  0.61958238  0.90942221  0.30171052    -0.83800
O77         O  0.55753817  0.85429718  0.28225852    -0.80900
C78         C  0.56336644  0.82374649  0.30462944     0.99700
O79         O  0.59384479  0.79950234  0.29993719    -0.80900
O80         O  0.67310781  0.77468261  0.28053243    -0.83500
C81         C  0.69635276  0.79459487  0.30347300     1.04100
O82         O  0.70221426  0.83324128  0.29960374    -0.76300
O83         O  0.68454622  0.91501027  0.28209588    -0.76500
C84         C  0.65563389  0.92445265  0.30536278     1.04100
Cr85       Cr  0.59936904  0.88766638  0.25204607     1.93700
Cr86       Cr  0.62373130  0.79493576  0.25019504     1.93200
Cr87       Cr  0.69183213  0.86278135  0.25060780     1.39100
O88         O  0.63831606  0.84840835  0.25097556    -1.21600
O89         O  0.05821725  0.35526355  0.02993702    -0.83800
O90         O  0.11953847  0.41090481  0.04952127    -0.80900
C91         C  0.15548482  0.42601563  0.05365007     0.99600
O92         O  0.18486709  0.41642942  0.03094756    -0.80900
O93         O  0.20257196  0.33495863  0.04952902    -0.83500
C94         C  0.19699770  0.29628923  0.05348999     1.04200
O95         O  0.17419894  0.27610158  0.03038155    -0.76300
O96         O  0.09470564  0.30106107  0.04885745    -0.76500
C97         C  0.06417084  0.32535917  0.05298526     1.04100
O98         O  0.07760045  0.36909747  0.45021299    -0.83800
O99         O  0.13330797  0.43036912  0.46979227    -0.80900
C100        C  0.16302957  0.42427388  0.44652973     0.99700
O101        O  0.18744166  0.39385273  0.45060683    -0.80900
O102        O  0.21295668  0.31471521  0.46931775    -0.83500
C103        C  0.19291332  0.29190906  0.44612919     1.04100
O104        O  0.15425631  0.28625030  0.45004700    -0.76300
O105        O  0.07261367  0.30361650  0.46843824    -0.76500
C106        C  0.06264733  0.33307639  0.44600201     1.04100
Cr107      Cr  0.10022858  0.38838151  0.99986376     1.93700
Cr108      Cr  0.19286176  0.36388420  0.50008720     1.93200
Cr109      Cr  0.12505920  0.29584374  0.49943921     1.39100
O110        O  0.13938880  0.34934093  0.49980790    -1.21600
O111        O  0.41076462  0.11772005  0.29811599    -0.83800
O112        O  0.35502749  0.05697277  0.27753345    -0.80900
C113        C  0.32565947  0.06273124  0.30126112     0.99600
O114        O  0.30137443  0.09339909  0.29793408    -0.80900
O115        O  0.27557185  0.17297736  0.28021811    -0.83500
C116        C  0.29561697  0.19569780  0.30346459     1.04200
O117        O  0.33430037  0.20114378  0.29969518    -0.76300
O118        O  0.41577329  0.18368931  0.28137576    -0.76500
C119        C  0.42540198  0.15370901  0.30336694     1.04100
O120        O  0.43025332  0.13323682  0.21865727    -0.83800
O121        O  0.36848942  0.07816308  0.19806915    -0.80900
C122        C  0.33252176  0.06298883  0.19409562     0.99700
O123        O  0.30341417  0.07214567  0.21725257    -0.80900
O124        O  0.28570493  0.15393981  0.19983780    -0.83500
C125        C  0.29154498  0.19261940  0.19619709     1.04100
O126        O  0.31448930  0.21246152  0.21944759    -0.76300
O127        O  0.39401454  0.18799317  0.20080476    -0.76500
C128        C  0.42457705  0.16382343  0.19632017     1.04100
Cr129      Cr  0.38811545  0.09957761  0.24812341     1.93700
Cr130      Cr  0.29560733  0.12422706  0.24883506     1.93200
Cr131      Cr  0.36352316  0.19220591  0.25024185     1.39100
O132        O  0.34907743  0.13873381  0.24903724    -1.21600
O133        O  0.61980641  0.07737729  0.05109210    -0.83800
O134        O  0.55801720  0.13270887  0.03140520    -0.80900
C135        C  0.56389659  0.16286789  0.05415292     0.99600
O136        O  0.59466839  0.18687252  0.05001034    -0.80900
O137        O  0.67403533  0.21192744  0.03110821    -0.83500
C138        C  0.69747516  0.19170271  0.05367642     1.04200
O139        O  0.70315664  0.15310486  0.04947088    -0.76300
O140        O  0.68486873  0.07167169  0.03172465    -0.76500
C141        C  0.65579597  0.06226542  0.05490072     1.04100
O142        O  0.63284537  0.05717413  0.47140824    -0.83800
O143        O  0.57724135  0.11839931  0.45174207    -0.80900
C144        C  0.56239303  0.15438812  0.44713934     0.99700
O145        O  0.57210719  0.18400715  0.46950146    -0.80900
O146        O  0.65338368  0.20204375  0.45086712    -0.83500
C147        C  0.69197299  0.19652986  0.44648691     1.04100
O148        O  0.71229212  0.17323726  0.46909472    -0.76300
O149        O  0.68639884  0.09383466  0.45105713    -0.76500
C150        C  0.66217458  0.06312685  0.44765971     1.04100
Cr151      Cr  0.60001961  0.09946392  0.00139281     1.93700
Cr152      Cr  0.62467946  0.19209620  0.50040237     1.93200
Cr153      Cr  0.69257660  0.12407738  0.00035176     1.39100
O154        O  0.63912793  0.13861600  0.50074066    -1.21600
O155        O  0.86949698  0.41125616  0.29802052    -0.83800
O156        O  0.93062876  0.35526387  0.27941368    -0.80900
C157        C  0.92414389  0.32638722  0.30348688     0.99600
O158        O  0.89343043  0.30217997  0.29995877    -0.80900
O159        O  0.81430932  0.27619638  0.28112564    -0.83500
C160        C  0.79099895  0.29675417  0.30357144     1.04200
O161        O  0.78558061  0.33533292  0.29892996    -0.76300
O162        O  0.80407691  0.41636604  0.27978117    -0.76500
C163        C  0.83350153  0.42617887  0.30223526     1.04100
O164        O  0.85621248  0.42977783  0.21816908    -0.83800
O165        O  0.91136593  0.36749030  0.19943795    -0.80900
C166        C  0.92638347  0.33140257  0.19610443     0.99700
O167        O  0.91675204  0.30270846  0.21954990    -0.80900
O168        O  0.83549728  0.28462629  0.20097017    -0.83500
C169        C  0.79698053  0.29047916  0.19637720     1.04100
O170        O  0.77655986  0.31407142  0.21872006    -0.76300
O171        O  0.80198063  0.39326493  0.19951247    -0.76500
C172        C  0.82625005  0.42383603  0.19526531     1.04100
Cr173      Cr  0.88887664  0.38793611  0.24877416     1.93700
Cr174      Cr  0.86390294  0.29551927  0.25034547     1.93200
Cr175      Cr  0.79614613  0.36361581  0.24924592     1.39100
O176        O  0.84956195  0.34900612  0.24941799    -1.21600
C177        C  0.77566469  0.26926891  0.16578971    -0.17000
C178        C  0.75773099  0.25163365  0.14000816     0.07100
C179        C  0.73670965  0.23101483  0.10979102     0.08900
C180        C  0.71877392  0.21325650  0.08407958    -0.17800
C181        C  0.76961267  0.27551625  0.33427914    -0.17000
C182        C  0.75186550  0.25743340  0.36004506     0.07100
C183        C  0.73116856  0.23611556  0.39020923     0.08900
C184        C  0.71341598  0.21794908  0.41592155    -0.17800
C185        C  0.45390115  0.17100469  0.16572791    -0.17000
C186        C  0.47922495  0.17372391  0.14011952     0.07100
C187        C  0.50916381  0.17325585  0.11022464     0.08900
C188        C  0.53449709  0.16997734  0.08468595    -0.17800
C189        C  0.53290987  0.16116394  0.41671954    -0.17000
C190        C  0.50809844  0.16366140  0.39077560     0.07100
C191        C  0.47912200  0.16321950  0.36019870     0.08900
C192        C  0.45451245  0.16023454  0.33413588    -0.17800
C193        C  0.95601989  0.32336656  0.16602185    -0.17000
C194        C  0.98110066  0.31915722  0.14042165     0.07100
C195        C  0.01046141  0.31749897  0.11012987     0.08900
C196        C  0.03528797  0.31920843  0.08406936    -0.17800
C197        C  0.03264661  0.32592097  0.41609894    -0.17000
C198        C  0.00719253  0.32199974  0.39084965     0.07100
C199        C  0.97752906  0.32009673  0.36089746     0.08900
C200        C  0.95270937  0.32120198  0.33488641    -0.17800
C201        C  0.27110402  0.21481207  0.16567088    -0.17000
C202        C  0.25426103  0.23368749  0.13999029     0.07100
C203        C  0.23460224  0.25582209  0.10988385     0.08900
C204        C  0.21762825  0.27450273  0.08415602    -0.17800
C205        C  0.21482113  0.27134032  0.41543416    -0.17000
C206        C  0.23338751  0.25415882  0.38969883     0.07100
C207        C  0.25516834  0.23391858  0.35963743     0.08900
C208        C  0.27369953  0.21650527  0.33401424    -0.17800
C209        C  0.66703682  0.95330290  0.16712895    -0.17000
C210        C  0.66859798  0.97822832  0.14113099     0.07100
C211        C  0.66711799  0.00764221  0.11085268     0.08900
C212        C  0.66327597  0.03271861  0.08519772    -0.17800
C213        C  0.66338569  0.95401123  0.33552441    -0.17000
C214        C  0.66754018  0.97925250  0.36094510     0.07100
C215        C  0.66931023  0.00892585  0.39091897     0.08900
C216        C  0.66784095  0.03400597  0.41673335    -0.17800
C217        C  0.81929414  0.53295014  0.08282709    -0.17000
C218        C  0.81678085  0.50767991  0.10848972     0.07100
C219        C  0.81696408  0.47798939  0.13859024     0.08900
C220        C  0.81974037  0.45291897  0.16438125    -0.17800
C221        C  0.82649827  0.45586255  0.33231661    -0.17000
C222        C  0.82401047  0.48083171  0.35806701     0.07100
C223        C  0.82476355  0.50986792  0.38845606     0.08900
C224        C  0.82808913  0.53442484  0.41444983    -0.17800
C225        C  0.77104162  0.71368881  0.41570555    -0.17000
C226        C  0.75398521  0.73217458  0.38990073     0.07100
C227        C  0.73413055  0.75395958  0.35967965     0.08900
C228        C  0.71707026  0.77255862  0.33394543    -0.17800
C229        C  0.77234303  0.71573569  0.08438594    -0.17000
C230        C  0.75337155  0.73273840  0.10998034     0.07100
C231        C  0.73118857  0.75282181  0.13989591     0.08900
C232        C  0.71254661  0.77017170  0.16549878    -0.17800
C233        C  0.32499751  0.03359968  0.16371798    -0.17000
C234        C  0.32048572  0.00849361  0.13822097     0.07100
C235        C  0.31798494  0.97892767  0.10817797     0.08900
C236        C  0.31894195  0.95387684  0.08230644    -0.17800
C237        C  0.32520448  0.95370562  0.41362028    -0.17000
C238        C  0.32108113  0.97876436  0.38801500     0.07100
C239        C  0.31899601  0.00834836  0.35795441     0.08900
C240        C  0.32013400  0.03347361  0.33213137    -0.17800
C241        C  0.45322717  0.82716363  0.08489597    -0.17000
C242        C  0.47783035  0.82432263  0.11094242     0.07100
C243        C  0.50681647  0.82411819  0.14145307     0.08900
C244        C  0.53166507  0.82671616  0.16731945    -0.17800
C245        C  0.45380528  0.81643505  0.41672403    -0.17000
C246        C  0.47919139  0.81347577  0.39116939     0.07100
C247        C  0.50907066  0.81354162  0.36117440     0.08900
C248        C  0.53425003  0.81657668  0.33544465    -0.17800
C249        C  0.16622107  0.53505550  0.16556482    -0.17000
C250        C  0.16774333  0.51026725  0.13952819     0.07100
C251        C  0.16631293  0.48085965  0.10934186     0.08900
C252        C  0.16261619  0.45570404  0.08380471    -0.17800
C253        C  0.16316295  0.53219649  0.33376145    -0.17000
C254        C  0.16773819  0.50698976  0.35910698     0.07100
C255        C  0.17005145  0.47759024  0.38919858     0.08900
C256        C  0.16882947  0.45287013  0.41528299    -0.17800
C257        C  0.95304630  0.66234377  0.08583944    -0.17000
C258        C  0.97765730  0.66537444  0.11174834     0.07100
C259        C  0.00676185  0.66531547  0.14198719     0.08900
C260        C  0.03169299  0.66219046  0.16762878    -0.17800
C261        C  0.95475592  0.67078473  0.41754038    -0.17000
C262        C  0.97993977  0.67319906  0.39176724     0.07100
C263        C  0.00948599  0.67264476  0.36151024     0.08900
C264        C  0.03441805  0.66950966  0.33560328    -0.17800
C265        C  0.21234042  0.71771364  0.16568176    -0.17000
C266        C  0.23102878  0.73496744  0.14003133     0.07100
C267        C  0.25325364  0.75485512  0.11001356     0.08900
C268        C  0.27219218  0.77175537  0.08431821    -0.17800
C269        C  0.21750410  0.71300200  0.33408457    -0.17000
C270        C  0.23454449  0.73164143  0.35976954     0.07100
C271        C  0.25415505  0.75377066  0.38986896     0.08900
C272        C  0.27088685  0.77264179  0.41558683    -0.17800
O273        O  0.07585583  0.61891712  0.70197753    -0.83800
O274        O  0.13158212  0.55762636  0.72064495    -0.80900
C275        C  0.16074098  0.56386372  0.69676703     0.99600
O276        O  0.18503054  0.59450934  0.70031870    -0.80900
O277        O  0.21114662  0.67360152  0.71907709    -0.83500
C278        C  0.19079054  0.69669304  0.69637439     1.04200
O279        O  0.15219543  0.70221345  0.70079082    -0.76300
O280        O  0.07106480  0.68441763  0.72015809    -0.76500
C281        C  0.06117427  0.65500086  0.69772538     1.04100
O282        O  0.05733038  0.63260813  0.78188585    -0.83800
O283        O  0.11922886  0.57710676  0.80059275    -0.80900
C284        C  0.15523924  0.56194285  0.80388990     0.99700
O285        O  0.18403980  0.57150515  0.78054825    -0.80900
O286        O  0.20219084  0.65282347  0.79922276    -0.83500
C287        C  0.19655003  0.69143561  0.80353094     1.04100
O288        O  0.17333600  0.71178810  0.78089460    -0.76300
O289        O  0.09406260  0.68684719  0.80028013    -0.76500
C290        C  0.06341790  0.66270104  0.80467560     1.04100
Cr291      Cr  0.09900211  0.59959179  0.75125616     1.93700
Cr292      Cr  0.19152340  0.62421913  0.74984675     1.93200
Cr293      Cr  0.12377855  0.69222071  0.75052932     1.39100
O294        O  0.13810427  0.63873198  0.75058076    -1.21600
O295        O  0.35417890  0.93047003  0.52787377    -0.83800
O296        O  0.40958668  0.86963636  0.54881408    -0.80900
C297        C  0.42419942  0.83366284  0.55410289     0.99600
O298        O  0.41468942  0.80371712  0.53208471    -0.80900
O299        O  0.33303007  0.78636034  0.54999430    -0.83500
C300        C  0.29435948  0.79203263  0.55359948     1.04200
O301        O  0.27451885  0.81460930  0.53007951    -0.76300
O302        O  0.30017897  0.89416299  0.54781162    -0.76500
C303        C  0.32456776  0.92474346  0.55137411     1.04100
O304        O  0.36831247  0.90934271  0.94851101    -0.83800
O305        O  0.42976780  0.85423895  0.96948267    -0.80900
C306        C  0.42423632  0.82365740  0.94713745     0.99700
O307        O  0.39359015  0.79949312  0.95145078    -0.80900
O308        O  0.31385933  0.77497754  0.96965843    -0.83500
C309        C  0.29116049  0.79481621  0.94619507     1.04100
O310        O  0.28537077  0.83350274  0.94969777    -0.76300
O311        O  0.30302319  0.91528376  0.96705787    -0.76500
C312        C  0.33238861  0.92442786  0.94415797     1.04100
Cr313      Cr  0.38742981  0.88787207  0.99869081     1.93700
Cr314      Cr  0.36267755  0.79525378  0.00069993     1.93200
Cr315      Cr  0.29486749  0.86326617  0.99869923     1.39100
O316        O  0.34831801  0.84873871  0.99933112    -1.21600
O317        O  0.87053049  0.57848823  0.94998670    -0.83800
O318        O  0.93115394  0.63418442  0.97124844    -0.80900
C319        C  0.92527653  0.66404843  0.94813084     0.99600
O320        O  0.89426311  0.68783164  0.95179402    -0.80900
O321        O  0.81429644  0.71214210  0.96959611    -0.83500
C322        C  0.79166475  0.69191610  0.94639223     1.04200
O323        O  0.78626668  0.65321000  0.95022012    -0.76300
O324        O  0.80504798  0.57192732  0.96793528    -0.76500
C325        C  0.83473158  0.56325524  0.94525240     1.04100
O326        O  0.85568558  0.55721547  0.52919916    -0.83800
O327        O  0.90988533  0.61912808  0.55036416    -0.80900
C328        C  0.92431794  0.65525269  0.55513196     0.99700
O329        O  0.91503516  0.68476599  0.53252768    -0.80900
O330        O  0.83329135  0.70172197  0.55005569    -0.83500
C331        C  0.79470999  0.69546379  0.55380960     1.04100
O332        O  0.77512010  0.67233748  0.53056566    -0.76300
O333        O  0.80131573  0.59311359  0.54862888    -0.76500
C334        C  0.82567921  0.56257685  0.55232541     1.04100
Cr335      Cr  0.88876680  0.60023136  0.00018882     1.93700
Cr336      Cr  0.86314894  0.69254413  0.50092955     1.93200
Cr337      Cr  0.79600295  0.62380111  0.99940149     1.39100
O338        O  0.84925914  0.63893194  0.50015530    -1.21600
O339        O  0.63216250  0.93001482  0.72193863    -0.83800
O340        O  0.57608528  0.86919162  0.70247454    -0.80900
C341        C  0.56122905  0.83323896  0.69764964     0.99600
O342        O  0.57107657  0.80336137  0.71966361    -0.80900
O343        O  0.65231937  0.78561831  0.70046805    -0.83500
C344        C  0.69095939  0.79105306  0.69623268     1.04200
O345        O  0.71131925  0.81386036  0.71917443    -0.76300
O346        O  0.68567980  0.89343726  0.70146132    -0.76500
C347        C  0.66143762  0.92413207  0.69811731     1.04100
O348        O  0.61957694  0.90941351  0.80171477    -0.83800
O349        O  0.55752718  0.85429357  0.78225496    -0.80900
C350        C  0.56335259  0.82374675  0.80462978     0.99700
O351        O  0.59383475  0.79950649  0.79994874    -0.80900
O352        O  0.67309803  0.77468819  0.78055924    -0.83500
C353        C  0.69635183  0.79460643  0.80348789     1.04100
O354        O  0.70221933  0.83325053  0.79960594    -0.76300
O355        O  0.68453592  0.91501273  0.78208944    -0.76500
C356        C  0.65562823  0.92444598  0.80536523     1.04100
Cr357      Cr  0.59936296  0.88765961  0.75204815     1.93700
Cr358      Cr  0.62372515  0.79492922  0.75021133     1.93200
Cr359      Cr  0.69182493  0.86277895  0.75060675     1.39100
O360        O  0.63830999  0.84840165  0.75098165    -1.21600
O361        O  0.05821210  0.35526275  0.52993740    -0.83800
O362        O  0.11953434  0.41091500  0.54952034    -0.80900
C363        C  0.15547770  0.42603947  0.55363622     0.99600
O364        O  0.18486006  0.41644297  0.53093590    -0.80900
O365        O  0.20259176  0.33496835  0.54951136    -0.83500
C366        C  0.19701928  0.29629855  0.55347739     1.04200
O367        O  0.17420329  0.27611063  0.53038202    -0.76300
O368        O  0.09470475  0.30106103  0.54885323    -0.76500
C369        C  0.06416453  0.32535217  0.55297836     1.04100
O370        O  0.07761389  0.36909349  0.95021134    -0.83800
O371        O  0.13332615  0.43036016  0.96979070    -0.80900
C372        C  0.16305539  0.42426646  0.94653515     0.99700
O373        O  0.18746903  0.39384676  0.95061985    -0.80900
O374        O  0.21296314  0.31470115  0.96934001    -0.83500
C375        C  0.19292242  0.29189947  0.94614595     1.04100
O376        O  0.15426235  0.28624901  0.95005155    -0.76300
O377        O  0.07261611  0.30361607  0.96844405    -0.76500
C378        C  0.06265335  0.33307501  0.94600658     1.04100
Cr379      Cr  0.10021905  0.38838548  0.49986517     1.93700
Cr380      Cr  0.19286813  0.36387344  0.00010180     1.93200
Cr381      Cr  0.12506004  0.29583996  0.99944172     1.39100
O382        O  0.13939430  0.34933534  0.99981019    -1.21600
O383        O  0.41077307  0.11774232  0.79813569    -0.83800
O384        O  0.35504421  0.05698886  0.77755665    -0.80900
C385        C  0.32567547  0.06274652  0.80128322     0.99600
O386        O  0.30138870  0.09341251  0.79795574    -0.80900
O387        O  0.27558425  0.17298490  0.78023798    -0.83500
C388        C  0.29563310  0.19569756  0.80348825     1.04200
O389        O  0.33431461  0.20114955  0.79971233    -0.76300
O390        O  0.41578334  0.18370736  0.78138367    -0.76500
C391        C  0.42541050  0.15373190  0.80338083     1.04100
O392        O  0.43026281  0.13325494  0.71867400    -0.83800
O393        O  0.36850389  0.07817258  0.69809173    -0.80900
C394        C  0.33253727  0.06299551  0.69411734     0.99700
O395        O  0.30342885  0.07214988  0.71727505    -0.80900
O396        O  0.28571290  0.15394369  0.69985322    -0.83500
C397        C  0.29155256  0.19262332  0.69620816     1.04100
O398        O  0.31448826  0.21246841  0.71946409    -0.76300
O399        O  0.39401536  0.18800264  0.70081382    -0.76500
C400        C  0.42458136  0.16383596  0.69633083     1.04100
Cr401      Cr  0.38812826  0.09959317  0.74814403     1.93700
Cr402      Cr  0.29561833  0.12423461  0.74885460     1.93200
Cr403      Cr  0.36352889  0.19221718  0.75025474     1.39100
O404        O  0.34908706  0.13874484  0.74905447    -1.21600
O405        O  0.61981922  0.07736548  0.55108364    -0.83800
O406        O  0.55803051  0.13270912  0.53142580    -0.80900
C407        C  0.56390701  0.16288320  0.55415856     0.99600
O408        O  0.59467035  0.18689669  0.54999816    -0.80900
O409        O  0.67404504  0.21193577  0.53108299    -0.83500
C410        C  0.69748153  0.19171475  0.55365866     1.04200
O411        O  0.70315324  0.15311375  0.54946494    -0.76300
O412        O  0.68488039  0.07167053  0.53171282    -0.76500
C413        C  0.65580741  0.06224804  0.55488272     1.04100
O414        O  0.63285225  0.05716213  0.97142492    -0.83800
O415        O  0.57726178  0.11839765  0.95173421    -0.80900
C416        C  0.56241047  0.15438673  0.94713709     0.99700
O417        O  0.57211498  0.18400167  0.96950791    -0.80900
O418        O  0.65339263  0.20206570  0.95089067    -0.83500
C419        C  0.69198065  0.19654222  0.94650622     1.04100
O420        O  0.71229463  0.17322977  0.96910091    -0.76300
O421        O  0.68639569  0.09382697  0.95106265    -0.76500
C422        C  0.66217789  0.06311288  0.94767267     1.04100
Cr423      Cr  0.60001919  0.09946558  0.50139370     1.93700
Cr424      Cr  0.62467951  0.19209278  0.00041844     1.93200
Cr425      Cr  0.69257763  0.12408312  0.50034583     1.39100
O426        O  0.63912932  0.13861368  0.00074521    -1.21600
O427        O  0.86953613  0.41123287  0.79802763    -0.83800
O428        O  0.93066283  0.35523901  0.77940780    -0.80900
C429        C  0.92416941  0.32637189  0.80348796     0.99600
O430        O  0.89345505  0.30216693  0.79996183    -0.80900
O431        O  0.81434379  0.27617064  0.78112946    -0.83500
C432        C  0.79103770  0.29672902  0.80357811     1.04200
O433        O  0.78561303  0.33530594  0.79893061    -0.76300
O434        O  0.80411262  0.41633911  0.77979432    -0.76500
C435        C  0.83354012  0.42615449  0.80224424     1.04100
O436        O  0.85624719  0.42976973  0.71818473    -0.83800
O437        O  0.91138717  0.36747418  0.69943720    -0.80900
C438        C  0.92640289  0.33138564  0.69610252     0.99700
O439        O  0.91678119  0.30269400  0.71955341    -0.80900
O440        O  0.83553054  0.28460040  0.70097221    -0.83500
C441        C  0.79701566  0.29046070  0.69637193     1.04100
O442        O  0.77659492  0.31405849  0.71871079    -0.76300
O443        O  0.80201350  0.39326468  0.69952055    -0.76500
C444        C  0.82628195  0.42383922  0.69528212     1.04100
Cr445      Cr  0.88890925  0.38791722  0.74877763     1.93700
Cr446      Cr  0.86393393  0.29549986  0.75034822     1.93200
Cr447      Cr  0.79617893  0.36359777  0.74924857     1.39100
O448        O  0.84959305  0.34898755  0.74941940    -1.21600
C449        C  0.77570166  0.26925546  0.66577737    -0.17000
C450        C  0.75776563  0.25163070  0.63998967     0.07100
C451        C  0.73673514  0.23102624  0.60976671     0.08900
C452        C  0.71878933  0.21327477  0.58405563    -0.17800
C453        C  0.76966272  0.27549541  0.83429745    -0.17000
C454        C  0.75191388  0.25742591  0.86007131     0.07100
C455        C  0.73120013  0.23612523  0.89023821     0.08900
C456        C  0.71343142  0.21796725  0.91594688    -0.17800
C457        C  0.45390457  0.17101537  0.66573533    -0.17000
C458        C  0.47923114  0.17373556  0.64012771     0.07100
C459        C  0.50917557  0.17327291  0.61023503     0.08900
C460        C  0.53451131  0.16999768  0.58469636    -0.17800
C461        C  0.53292993  0.16116745  0.91671819    -0.17000
C462        C  0.50811557  0.16367434  0.89077830     0.07100
C463        C  0.47913413  0.16324263  0.86020709     0.08900
C464        C  0.45452128  0.16026151  0.83414736    -0.17800
C465        C  0.95602512  0.32334508  0.66601203    -0.17000
C466        C  0.98109458  0.31912908  0.64040501     0.07100
C467        C  0.01044729  0.31746909  0.61010960     0.08900
C468        C  0.03527515  0.31918631  0.58405208    -0.17800
C469        C  0.03264728  0.32592098  0.91611068    -0.17000
C470        C  0.00719156  0.32199824  0.89086528     0.07100
C471        C  0.97753396  0.32009277  0.86091100     0.08900
C472        C  0.95272436  0.32119440  0.83489385    -0.17800
C473        C  0.27112532  0.21481309  0.66566777    -0.17000
C474        C  0.25429729  0.23368986  0.63997751     0.07100
C475        C  0.23464673  0.25582913  0.60986452     0.08900
C476        C  0.21766797  0.27451157  0.58413803    -0.17800
C477        C  0.21483831  0.27132513  0.91546125    -0.17000
C478        C  0.23341262  0.25413990  0.88973401     0.07100
C479        C  0.25519577  0.23389962  0.85967607     0.08900
C480        C  0.27372278  0.21649174  0.83404816    -0.17800
C481        C  0.66700892  0.95327362  0.66710742    -0.17000
C482        C  0.66857597  0.97818647  0.64109864     0.07100
C483        C  0.66711309  0.00759466  0.61081413     0.08900
C484        C  0.66328427  0.03267976  0.58516364    -0.17800
C485        C  0.66338490  0.95399630  0.83553423    -0.17000
C486        C  0.66754360  0.97923092  0.86096112     0.07100
C487        C  0.66931600  0.00890155  0.89093839     0.08900
C488        C  0.66784652  0.03398454  0.91675151    -0.17800
C489        C  0.81932304  0.53298213  0.58285846    -0.17000
C490        C  0.81681837  0.50771738  0.60852811     0.07100
C491        C  0.81700085  0.47802199  0.63862673     0.08900
C492        C  0.81977218  0.45293859  0.66440912    -0.17800
C493        C  0.82653804  0.45584358  0.83232001    -0.17000
C494        C  0.82403978  0.48082137  0.85806172     0.07100
C495        C  0.82477647  0.50986522  0.88844364     0.08900
C496        C  0.82809215  0.53442339  0.91443665    -0.17800
C497        C  0.77103988  0.71367241  0.91570012    -0.17000
C498        C  0.75398289  0.73216754  0.88990226     0.07100
C499        C  0.73413080  0.75396902  0.85969080     0.08900
C500        C  0.71707220  0.77257645  0.83396160    -0.17800
C501        C  0.77233547  0.71573206  0.58439837    -0.17000
C502        C  0.75336166  0.73272548  0.60999560     0.07100
C503        C  0.73117940  0.75280044  0.63991519     0.08900
C504        C  0.71254037  0.77014836  0.66551995    -0.17800
C505        C  0.32501562  0.03361010  0.66373488    -0.17000
C506        C  0.32050964  0.00851089  0.63822968     0.07100
C507        C  0.31801371  0.97895130  0.60817942     0.08900
C508        C  0.31896751  0.95389911  0.58230709    -0.17800
C509        C  0.32522402  0.95370498  0.91362135    -0.17000
C510        C  0.32109951  0.97876699  0.88802057     0.07100
C511        C  0.31901189  0.00835754  0.85796782     0.08900
C512        C  0.32014896  0.03348795  0.83215051    -0.17800
C513        C  0.45320789  0.82715287  0.58490087    -0.17000
C514        C  0.47780977  0.82431334  0.61095043     0.07100
C515        C  0.50680006  0.82410878  0.64146095     0.08900
C516        C  0.53165401  0.82670449  0.66732513    -0.17800
C517        C  0.45380516  0.81644661  0.91672585    -0.17000
C518        C  0.47918090  0.81348451  0.89116508     0.07100
C519        C  0.50905139  0.81354526  0.86116565     0.08900
C520        C  0.53423015  0.81657794  0.83543739    -0.17800
C521        C  0.16619489  0.53511496  0.66553366    -0.17000
C522        C  0.16771574  0.51034075  0.63948354     0.07100
C523        C  0.16629205  0.48093096  0.60929599     0.08900
C524        C  0.16260342  0.45575713  0.58377081    -0.17800
C525        C  0.16315265  0.53220122  0.83377066    -0.17000
C526        C  0.16773829  0.50699355  0.85911557     0.07100
C527        C  0.17006941  0.47758870  0.88920429     0.08900
C528        C  0.16885830  0.45286367  0.91528695    -0.17800
C529        C  0.95304289  0.66236464  0.58584985    -0.17000
C530        C  0.97764785  0.66539936  0.61176339     0.07100
C531        C  0.00674650  0.66534545  0.64200646     0.08900
C532        C  0.03167594  0.66222233  0.66764972    -0.17800
C533        C  0.95476586  0.67076640  0.91755060    -0.17000
C534        C  0.97995680  0.67319129  0.89178605     0.07100
C535        C  0.00950619  0.67265108  0.86153489     0.08900
C536        C  0.03443513  0.66952443  0.83562639    -0.17800
C537        C  0.21233627  0.71771195  0.66569255    -0.17000
C538        C  0.23102354  0.73495609  0.64003594     0.07100
C539        C  0.25324442  0.75483683  0.61001227     0.08900
C540        C  0.27217935  0.77173891  0.58431555    -0.17800
C541        C  0.21748919  0.71300287  0.83410436    -0.17000
C542        C  0.23454210  0.73163100  0.85978835     0.07100
C543        C  0.25417394  0.75374735  0.88988258     0.08900
C544        C  0.27091911  0.77261551  0.91559398    -0.17800
loop_ 
_geom_bond_atom_site_label_1 
_geom_bond_atom_site_label_2 
_geom_bond_distance 
_geom_bond_site_symmetry_2 
_ccdc_geom_bond_type 
O1          Cr19   1.968       .  S
O1            C9   1.257       .  A
O2          Cr19   2.006       .  S
O2            C3   1.263       .  A
C3            O4   1.259       .  A
C3          C249   1.434       .  S
O4          Cr20   1.979       .  S
O5          Cr20   2.008       .  S
O5            C6   1.264       .  A
C6            O7   1.258       .  A
C6          C265   1.436       .  S
O7          Cr21   1.977       .  S
O8          Cr21   2.010       .  S
O8            C9   1.264       .  A
C9          C260   1.430       .  S
O10         Cr19   2.007       .  S
O10          C18   1.264       .  A
O11         Cr19   1.971       .  S
O11          C12   1.257       .  A
C12          O13   1.264       .  A
C12         C253   1.432       .  S
O13         Cr20   2.010       .  S
O14         Cr20   1.977       .  S
O14          C15   1.259       .  A
C15          O16   1.265       .  A
C15         C269   1.436       .  S
O16         Cr21   2.009       .  S
O17         Cr21   1.979       .  S
O17          C18   1.258       .  A
C18         C264   1.436       .  S
Cr19         O22   1.772       .  S
Cr20         O22   1.774       .  S
Cr21         O22   1.774       .  S
O23        Cr313   2.006   1_554  S
O23          C31   1.263       .  A
O24        Cr313   1.971   1_554  S
O24          C25   1.257       .  A
C25          O26   1.265       .  A
C25         C241   1.435       .  S
O26        Cr314   2.013       .  S
O27        Cr314   1.977       .  S
O27          C28   1.258       .  A
C28          O29   1.264       .  A
C28         C268   1.436       .  S
O29        Cr315   2.008   1_554  S
O30        Cr315   1.981   1_554  S
O30          C31   1.259       .  A
C31         C236   1.436       .  S
O32         Cr41   1.973       .  S
O32          C40   1.258       .  A
O33         Cr41   2.007       .  S
O33          C34   1.263       .  A
C34          O35   1.258       .  A
C34         C245   1.436       .  S
O35         Cr42   1.980       .  S
O36         Cr42   2.010       .  S
O36          C37   1.265       .  A
C37          O38   1.259       .  A
C37         C272   1.436       .  S
O38         Cr43   1.977       .  S
O39         Cr43   2.012       .  S
O39          C40   1.265       .  A
C40         C237   1.435       .  S
Cr41        O295   2.006       .  S
Cr41        O296   1.971       .  S
Cr41         O44   1.772       .  S
Cr42        O298   2.013       .  S
Cr42        O299   1.977       .  S
Cr42         O44   1.775       .  S
Cr43        O301   2.008       .  S
Cr43        O302   1.981       .  S
Cr43         O44   1.775       .  S
O45         Cr63   1.969       .  S
O45          C53   1.257       .  A
O46         Cr63   2.007       .  S
O46          C47   1.263       .  A
C47          O48   1.259       .  A
C47         C261   1.436       .  S
O48        Cr336   1.981       .  S
O49        Cr336   2.010       .  S
O49          C50   1.265       .  A
C50          O51   1.258       .  A
C50         C225   1.436       .  S
O51         Cr65   1.977       .  S
O52         Cr65   2.011       .  S
O52          C53   1.265       .  A
C53         C224   1.431       .  S
O54        Cr335   2.007       .  S
O54          C62   1.263       .  A
O55        Cr335   1.968       .  S
O55          C56   1.257       .  A
C56          O57   1.265       .  A
C56         C257   1.430       .  S
O57         Cr64   2.010       .  S
O58         Cr64   1.977       .  S
O58          C59   1.258       .  A
C59          O60   1.264       .  A
C59         C229   1.436       .  S
O60        Cr337   2.009   1_554  S
O61        Cr337   1.980   1_554  S
O61          C62   1.258       .  A
C62         C217   1.436       .  S
Cr63        O326   2.007       .  S
Cr63        O327   1.968       .  S
Cr63        O338   1.772       .  S
Cr64        O320   1.981   1_554  S
Cr64        O321   2.010   1_554  S
Cr64         O66   1.774       .  S
Cr65        O332   2.009       .  S
Cr65        O333   1.980       .  S
Cr65        O338   1.773       .  S
O66        Cr335   1.772       .  S
O66        Cr337   1.773   1_554  S
O67         Cr85   2.007       .  S
O67          C75   1.264       .  A
O68         Cr85   1.971       .  S
O68          C69   1.257       .  A
C69          O70   1.265       .  A
C69         C244   1.435       .  S
O70         Cr86   2.014       .  S
O71         Cr86   1.977       .  S
O71          C72   1.258       .  A
C72          O73   1.264       .  A
C72         C232   1.437       .  S
O73         Cr87   2.010       .  S
O74         Cr87   1.980       .  S
O74          C75   1.259       .  A
C75         C209   1.436       .  S
O76         Cr85   1.973       .  S
O76          C84   1.258       .  A
O77         Cr85   2.007       .  S
O77          C78   1.263       .  A
C78          O79   1.258       .  A
C78         C248   1.437       .  S
O79         Cr86   1.980       .  S
O80         Cr86   2.011       .  S
O80          C81   1.265       .  A
C81          O82   1.259       .  A
C81         C228   1.436       .  S
O82         Cr87   1.976       .  S
O83         Cr87   2.013       .  S
O83          C84   1.265       .  A
C84         C213   1.435       .  S
Cr85         O88   1.772       .  S
Cr86         O88   1.775       .  S
Cr87         O88   1.775       .  S
O89        Cr107   2.004   1_554  S
O89          C97   1.263       .  A
O90        Cr107   1.972   1_554  S
O90          C91   1.257       .  A
C91          O92   1.265       .  A
C91         C252   1.435       .  S
O92        Cr380   2.013       .  S
O93        Cr380   1.976       .  S
O93          C94   1.259       .  A
C94          O95   1.265       .  A
C94         C204   1.436       .  S
O95        Cr381   2.011   1_554  S
O96        Cr381   1.979   1_554  S
O96          C97   1.258       .  A
C97         C196   1.434       .  S
O98        Cr379   1.973       .  S
O98         C106   1.258       .  A
O99        Cr379   2.003       .  S
O99         C100   1.263       .  A
C100        O101   1.258       .  A
C100        C256   1.432       .  S
O101       Cr108   1.977       .  S
O102       Cr108   2.010       .  S
O102        C103   1.264       .  A
C103        O104   1.258       .  A
C103        C205   1.436       .  S
O104       Cr109   1.977       .  S
O105       Cr109   2.014       .  S
O105        C106   1.265       .  A
C106        C197   1.436       .  S
Cr107       O370   1.973       .  S
Cr107       O371   2.003       .  S
Cr107       O382   1.772       .  S
Cr108       O364   2.013       .  S
Cr108       O365   1.976       .  S
Cr108       O110   1.775       .  S
Cr109       O367   2.011       .  S
Cr109       O368   1.979       .  S
Cr109       O110   1.774       .  S
O110       Cr379   1.772       .  S
O111       Cr129   1.973       .  S
O111        C119   1.258       .  A
O112       Cr129   2.005       .  S
O112        C113   1.263       .  A
C113        O114   1.259       .  A
C113        C240   1.434       .  S
O114       Cr130   1.980       .  S
O115       Cr130   2.010       .  S
O115        C116   1.264       .  A
C116        O117   1.258       .  A
C116        C208   1.436       .  S
O117       Cr131   1.976       .  S
O118       Cr131   2.014       .  S
O118        C119   1.266       .  A
C119        C192   1.436       .  S
O120       Cr129   2.005       .  S
O120        C128   1.263       .  A
O121       Cr129   1.975       .  S
O121        C122   1.258       .  A
C122        O123   1.265       .  A
C122        C233   1.436       .  S
O123       Cr130   2.013       .  S
O124       Cr130   1.977       .  S
O124        C125   1.259       .  A
C125        O126   1.265       .  A
C125        C201   1.436       .  S
O126       Cr131   2.011       .  S
O127       Cr131   1.979       .  S
O127        C128   1.258       .  A
C128        C185   1.435       .  S
Cr129       O132   1.772       .  S
Cr130       O132   1.775       .  S
Cr131       O132   1.774       .  S
O133       Cr151   1.972       .  S
O133        C141   1.258       .  A
O134       Cr151   2.007       .  S
O134        C135   1.263       .  A
C135        O136   1.258       .  A
C135        C188   1.435       .  S
O136       Cr424   1.978       .  S
O137       Cr424   2.013       .  S
O137        C138   1.266       .  A
C138        O139   1.258       .  A
C138        C180   1.437       .  S
O139       Cr153   1.975       .  S
O140       Cr153   2.015       .  S
O140        C141   1.266       .  A
C141        C212   1.436       .  S
O142       Cr423   2.006       .  S
O142        C150   1.263       .  A
O143       Cr423   1.971       .  S
O143        C144   1.257       .  A
C144        O145   1.266       .  A
C144        C189   1.436       .  S
O145       Cr152   2.017       .  S
O146       Cr152   1.975       .  S
O146        C147   1.258       .  A
C147        O148   1.265       .  A
C147        C184   1.437       .  S
O148       Cr425   2.012       .  S
O149       Cr425   1.979       .  S
O149        C150   1.258       .  A
C150        C216   1.435       .  S
Cr151       O414   2.006   1_554  S
Cr151       O415   1.971   1_554  S
Cr151       O426   1.772       .  S
Cr152       O408   1.978       .  S
Cr152       O409   2.013       .  S
Cr152       O154   1.775       .  S
Cr153       O420   2.012   1_554  S
Cr153       O421   1.979   1_554  S
Cr153       O426   1.775       .  S
O154       Cr423   1.772       .  S
O154       Cr425   1.775       .  S
O155       Cr173   1.967       .  S
O155        C163   1.257       .  A
O156       Cr173   2.006       .  S
O156        C157   1.263       .  A
C157        O158   1.259       .  A
C157        C200   1.436       .  S
O158       Cr174   1.981       .  S
O159       Cr174   2.010       .  S
O159        C160   1.264       .  A
C160        O161   1.258       .  A
C160        C181   1.437       .  S
O161       Cr175   1.978       .  S
O162       Cr175   2.012       .  S
O162        C163   1.265       .  A
C163        C221   1.431       .  S
O164       Cr173   2.007       .  S
O164        C172   1.263       .  A
O165       Cr173   1.971       .  S
O165        C166   1.258       .  A
C166        O167   1.265       .  A
C166        C193   1.434       .  S
O167       Cr174   2.014       .  S
O168       Cr174   1.976       .  S
O168        C169   1.259       .  A
C169        O170   1.265       .  A
C169        C177   1.436       .  S
O170       Cr175   2.011       .  S
O171       Cr175   1.980       .  S
O171        C172   1.258       .  A
C172        C220   1.436       .  S
Cr173       O176   1.772       .  S
Cr174       O176   1.774       .  S
Cr175       O176   1.774       .  S
C177        C178   1.206       .  T
C178        C179   1.413       .  S
C179        C180   1.207       .  T
C181        C182   1.207       .  T
C182        C183   1.414       .  S
C183        C184   1.207       .  T
C185        C186   1.206       .  T
C186        C187   1.412       .  S
C187        C188   1.206       .  T
C189        C190   1.206       .  T
C190        C191   1.413       .  S
C191        C192   1.206       .  T
C193        C194   1.205       .  T
C194        C195   1.411   1_655  S
C195        C196   1.205       .  T
C197        C198   1.206       .  T
C198        C199   1.413   1_455  S
C199        C200   1.206       .  T
C201        C202   1.206       .  T
C202        C203   1.413       .  S
C203        C204   1.206       .  T
C205        C206   1.206       .  T
C206        C207   1.413       .  S
C207        C208   1.206       .  T
C209        C210   1.206       .  T
C210        C211   1.413   1_565  S
C211        C212   1.206       .  T
C213        C214   1.206       .  T
C214        C215   1.412   1_565  S
C215        C216   1.206       .  T
C217        C218   1.206       .  T
C218        C219   1.413       .  S
C219        C220   1.206       .  T
C221        C222   1.203       .  T
C222        C223   1.408       .  S
C223        C224   1.203       .  T
C225        C226   1.206       .  T
C226        C227   1.413       .  S
C227        C228   1.206       .  T
C229        C230   1.207       .  T
C230        C231   1.413       .  S
C231        C232   1.207       .  T
C233        C234   1.206       .  T
C234        C235   1.413   1_545  S
C235        C236   1.206       .  T
C237        C238   1.205       .  T
C238        C239   1.412   1_565  S
C239        C240   1.205       .  T
C241        C242   1.205       .  T
C242        C243   1.411       .  S
C243        C244   1.205       .  T
C245        C246   1.206       .  T
C246        C247   1.413       .  S
C247        C248   1.207       .  T
C249        C250   1.205       .  T
C250        C251   1.411       .  S
C251        C252   1.205       .  T
C253        C254   1.204       .  T
C254        C255   1.409       .  S
C255        C256   1.204       .  T
C257        C258   1.202       .  T
C258        C259   1.407   1_655  S
C259        C260   1.203       .  T
C261        C262   1.206       .  T
C262        C263   1.413   1_655  S
C263        C264   1.206       .  T
C265        C266   1.206       .  T
C266        C267   1.413       .  S
C267        C268   1.206       .  T
C269        C270   1.206       .  T
C270        C271   1.413       .  S
C271        C272   1.206       .  T
O273       Cr291   1.968       .  S
O273        C281   1.257       .  A
O274       Cr291   2.007       .  S
O274        C275   1.264       .  A
C275        O276   1.259       .  A
C275        C521   1.435       .  S
O276       Cr292   1.979       .  S
O277       Cr292   2.008       .  S
O277        C278   1.264       .  A
C278        O279   1.258       .  A
C278        C537   1.436       .  S
O279       Cr293   1.977       .  S
O280       Cr293   2.010       .  S
O280        C281   1.264       .  A
C281        C532   1.430       .  S
O282       Cr291   2.007       .  S
O282        C290   1.264       .  A
O283       Cr291   1.971       .  S
O283        C284   1.257       .  A
C284        O285   1.264       .  A
C284        C525   1.432       .  S
O285       Cr292   2.010       .  S
O286       Cr292   1.977       .  S
O286        C287   1.259       .  A
C287        O288   1.265       .  A
C287        C541   1.436       .  S
O288       Cr293   2.009       .  S
O289       Cr293   1.979       .  S
O289        C290   1.258       .  A
C290        C536   1.436       .  S
Cr291       O294   1.772       .  S
Cr292       O294   1.774       .  S
Cr293       O294   1.774       .  S
O295        C303   1.263       .  A
O296        C297   1.257       .  A
C297        O298   1.265       .  A
C297        C513   1.435       .  S
O299        C300   1.258       .  A
C300        O301   1.264       .  A
C300        C540   1.436       .  S
O302        C303   1.259       .  A
C303        C508   1.436       .  S
O304       Cr313   1.973       .  S
O304        C312   1.258       .  A
O305       Cr313   2.007       .  S
O305        C306   1.263       .  A
C306        O307   1.258       .  A
C306        C517   1.436       .  S
O307       Cr314   1.980   1_556  S
O308       Cr314   2.010   1_556  S
O308        C309   1.265       .  A
C309        O310   1.259       .  A
C309        C544   1.436       .  S
O310       Cr315   1.977       .  S
O311       Cr315   2.012       .  S
O311        C312   1.265       .  A
C312        C509   1.435       .  S
Cr313       O316   1.772       .  S
Cr314       O316   1.775   1_554  S
Cr315       O316   1.775       .  S
O317       Cr335   1.969   1_556  S
O317        C325   1.257       .  A
O318       Cr335   2.007   1_556  S
O318        C319   1.263       .  A
C319        O320   1.259       .  A
C319        C533   1.436       .  S
O321        C322   1.265       .  A
C322        O323   1.258       .  A
C322        C497   1.436       .  S
O323       Cr337   1.977       .  S
O324       Cr337   2.011       .  S
O324        C325   1.265       .  A
C325        C496   1.431       .  S
O326        C334   1.263       .  A
O327        C328   1.257       .  A
C328        O329   1.265       .  A
C328        C529   1.430       .  S
O329       Cr336   2.010       .  S
O330       Cr336   1.977       .  S
O330        C331   1.258       .  A
C331        O332   1.264       .  A
C331        C501   1.436       .  S
O333        C334   1.258       .  A
C334        C489   1.436       .  S
Cr336       O338   1.774       .  S
O339       Cr357   2.007       .  S
O339        C347   1.264       .  A
O340       Cr357   1.971       .  S
O340        C341   1.257       .  A
C341        O342   1.265       .  A
C341        C516   1.435       .  S
O342       Cr358   2.014       .  S
O343       Cr358   1.977       .  S
O343        C344   1.258       .  A
C344        O345   1.264       .  A
C344        C504   1.437       .  S
O345       Cr359   2.010       .  S
O346       Cr359   1.980       .  S
O346        C347   1.259       .  A
C347        C481   1.436       .  S
O348       Cr357   1.973       .  S
O348        C356   1.258       .  A
O349       Cr357   2.007       .  S
O349        C350   1.263       .  A
C350        O351   1.258       .  A
C350        C520   1.436       .  S
O351       Cr358   1.980       .  S
O352       Cr358   2.011       .  S
O352        C353   1.265       .  A
C353        O354   1.259       .  A
C353        C500   1.436       .  S
O354       Cr359   1.976       .  S
O355       Cr359   2.013       .  S
O355        C356   1.265       .  A
C356        C485   1.435       .  S
Cr357       O360   1.772       .  S
Cr358       O360   1.775       .  S
Cr359       O360   1.775       .  S
O361       Cr379   2.004       .  S
O361        C369   1.263       .  A
O362       Cr379   1.972       .  S
O362        C363   1.258       .  A
C363        O364   1.265       .  A
C363        C524   1.435       .  S
O365        C366   1.259       .  A
C366        O367   1.265       .  A
C366        C476   1.436       .  S
O368        C369   1.258       .  A
C369        C468   1.434       .  S
O370        C378   1.258       .  A
O371        C372   1.263       .  A
C372        O373   1.258       .  A
C372        C528   1.432       .  S
O373       Cr380   1.977   1_556  S
O374       Cr380   2.010   1_556  S
O374        C375   1.264       .  A
C375        O376   1.258       .  A
C375        C477   1.436       .  S
O376       Cr381   1.977       .  S
O377       Cr381   2.014       .  S
O377        C378   1.265       .  A
C378        C469   1.436       .  S
Cr380       O382   1.775   1_554  S
Cr381       O382   1.774       .  S
O383       Cr401   1.973       .  S
O383        C391   1.258       .  A
O384       Cr401   2.005       .  S
O384        C385   1.263       .  A
C385        O386   1.259       .  A
C385        C512   1.434       .  S
O386       Cr402   1.980       .  S
O387       Cr402   2.010       .  S
O387        C388   1.264       .  A
C388        O389   1.258       .  A
C388        C480   1.436       .  S
O389       Cr403   1.976       .  S
O390       Cr403   2.014       .  S
O390        C391   1.266       .  A
C391        C464   1.436       .  S
O392       Cr401   2.005       .  S
O392        C400   1.263       .  A
O393       Cr401   1.975       .  S
O393        C394   1.258       .  A
C394        O395   1.265       .  A
C394        C505   1.436       .  S
O395       Cr402   2.013       .  S
O396       Cr402   1.977       .  S
O396        C397   1.259       .  A
C397        O398   1.265       .  A
C397        C473   1.436       .  S
O398       Cr403   2.011       .  S
O399       Cr403   1.979       .  S
O399        C400   1.258       .  A
C400        C457   1.435       .  S
Cr401       O404   1.772       .  S
Cr402       O404   1.775       .  S
Cr403       O404   1.774       .  S
O405       Cr423   1.972       .  S
O405        C413   1.258       .  A
O406       Cr423   2.007       .  S
O406        C407   1.263       .  A
C407        O408   1.258       .  A
C407        C460   1.435       .  S
O409        C410   1.266       .  A
C410        O411   1.258       .  A
C410        C452   1.437       .  S
O411       Cr425   1.975       .  S
O412       Cr425   2.015       .  S
O412        C413   1.266       .  A
C413        C484   1.436       .  S
O414        C422   1.263       .  A
O415        C416   1.257       .  A
C416        O417   1.266       .  A
C416        C461   1.436       .  S
O417       Cr424   2.017   1_556  S
O418       Cr424   1.975   1_556  S
O418        C419   1.258       .  A
C419        O420   1.265       .  A
C419        C456   1.437       .  S
O421        C422   1.258       .  A
C422        C488   1.435       .  S
Cr424       O426   1.775       .  S
O427       Cr445   1.967       .  S
O427        C435   1.257       .  A
O428       Cr445   2.006       .  S
O428        C429   1.263       .  A
C429        O430   1.259       .  A
C429        C472   1.436       .  S
O430       Cr446   1.981       .  S
O431       Cr446   2.010       .  S
O431        C432   1.264       .  A
C432        O433   1.258       .  A
C432        C453   1.437       .  S
O433       Cr447   1.978       .  S
O434       Cr447   2.012       .  S
O434        C435   1.265       .  A
C435        C493   1.431       .  S
O436       Cr445   2.007       .  S
O436        C444   1.263       .  A
O437       Cr445   1.971       .  S
O437        C438   1.258       .  A
C438        O439   1.265       .  A
C438        C465   1.434       .  S
O439       Cr446   2.013       .  S
O440       Cr446   1.976       .  S
O440        C441   1.259       .  A
C441        O442   1.265       .  A
C441        C449   1.436       .  S
O442       Cr447   2.011       .  S
O443       Cr447   1.980       .  S
O443        C444   1.258       .  A
C444        C492   1.436       .  S
Cr445       O448   1.772       .  S
Cr446       O448   1.774       .  S
Cr447       O448   1.774       .  S
C449        C450   1.206       .  T
C450        C451   1.413       .  S
C451        C452   1.207       .  T
C453        C454   1.207       .  T
C454        C455   1.414       .  S
C455        C456   1.207       .  T
C457        C458   1.206       .  T
C458        C459   1.412       .  S
C459        C460   1.206       .  T
C461        C462   1.206       .  T
C462        C463   1.413       .  S
C463        C464   1.206       .  T
C465        C466   1.205       .  T
C466        C467   1.411   1_655  S
C467        C468   1.205       .  T
C469        C470   1.206       .  T
C470        C471   1.413   1_455  S
C471        C472   1.206       .  T
C473        C474   1.206       .  T
C474        C475   1.413       .  S
C475        C476   1.206       .  T
C477        C478   1.206       .  T
C478        C479   1.413       .  S
C479        C480   1.206       .  T
C481        C482   1.206       .  T
C482        C483   1.413   1_565  S
C483        C484   1.206       .  T
C485        C486   1.206       .  T
C486        C487   1.412   1_565  S
C487        C488   1.206       .  T
C489        C490   1.206       .  T
C490        C491   1.413       .  S
C491        C492   1.206       .  T
C493        C494   1.203       .  T
C494        C495   1.408       .  S
C495        C496   1.203       .  T
C497        C498   1.206       .  T
C498        C499   1.413       .  S
C499        C500   1.206       .  T
C501        C502   1.206       .  T
C502        C503   1.413       .  S
C503        C504   1.207       .  T
C505        C506   1.206       .  T
C506        C507   1.413   1_545  S
C507        C508   1.206       .  T
C509        C510   1.205       .  T
C510        C511   1.411   1_565  S
C511        C512   1.205       .  T
C513        C514   1.205       .  T
C514        C515   1.412       .  S
C515        C516   1.205       .  T
C517        C518   1.206       .  T
C518        C519   1.413       .  S
C519        C520   1.206       .  T
C521        C522   1.205       .  T
C522        C523   1.411       .  S
C523        C524   1.205       .  T
C525        C526   1.204       .  T
C526        C527   1.409       .  S
C527        C528   1.204       .  T
C529        C530   1.202       .  T
C530        C531   1.407   1_655  S
C531        C532   1.203       .  T
C533        C534   1.206       .  T
C534        C535   1.413   1_655  S
C535        C536   1.206       .  T
C537        C538   1.206       .  T
C538        C539   1.413       .  S
C539        C540   1.206       .  T
C541        C542   1.206       .  T
C542        C543   1.413       .  S
C543        C544   1.206       .  T
