geometry optimzed in LAMMPS
_audit_creation_date              2020-11-30 
_audit_creation_method            'lammps2cif' 
_symmetry_space_group_name_H-M    'P1' 
_symmetry_Int_Tables_number       1 
_symmetry_cell_setting            triclinic 
loop_ 
_symmetry_equiv_pos_as_xyz 
  x,y,z 
_cell_length_a                    42.29576117 
_cell_length_b                    43.35921397448446 
_cell_length_c                    34.940453846821924 
_cell_angle_alpha                 89.89365971217866 
_cell_angle_beta                  89.9093991622378 
_cell_angle_gamma                 122.80779832310114 
loop_ 
_atom_site_label 
_atom_site_type_symbol 
_atom_site_fract_x 
_atom_site_fract_y 
_atom_site_fract_z 
_atom_site_charge 
O1          O  0.19915132  0.69495884  0.17611388    -0.81200
O2          O  0.25248778  0.85917341  0.21728908    -0.65900
O3          O  0.19863163  0.75805285  0.19030383    -1.12500
C4          C  0.22731734  0.80447086  0.06449604     1.05700
O5          O  0.22244784  0.87240366  0.17508745    -0.79100
O6          O  0.16779160  0.81205687  0.13464816    -0.66700
Ni7        Ni  0.20993365  0.72705300  0.21825386     1.34900
C8          C  0.15006234  0.77810319  0.12639531     0.84400
O9          O  0.21251862  0.79887644  0.25837138    -0.79600
O10         O  0.22079693  0.75300575  0.26582559    -0.89900
C11         C  0.24439666  0.88114379  0.20377034     0.84000
O12         O  0.26144607  0.75579448  0.20374579    -0.68100
O13         O  0.21993400  0.82728961  0.07810758    -0.87400
C14         C  0.28399956  0.78981103  0.21030446     0.84800
C15         C  0.21754608  0.77820808  0.27955271     1.06400
H16         H  0.26425401  0.83118180  0.14900557     0.38200
O17         O  0.23737170  0.81860728  0.15268873    -1.10000
O18         O  0.16640590  0.76066013  0.12399144    -0.66700
Ni19       Ni  0.21473099  0.76907917  0.13727222     1.26300
O20         O  0.27299185  0.81190310  0.21462578    -0.66900
O21         O  0.23118404  0.78272061  0.08559109    -0.79200
C22         C  0.19272219  0.69323338  0.14052674     0.84200
O23         O  0.19415689  0.71920888  0.12206263    -0.66400
Ni24       Ni  0.22081495  0.84715677  0.12821176     1.27400
Ni25       Ni  0.22561310  0.80862445  0.20545277     1.26100
H26         H  0.17196320  0.74789888  0.19249185     0.38800
O27         O  0.20725765  0.69367114  0.67611701    -0.81200
O28         O  0.25489766  0.85662423  0.71695396    -0.65900
O29         O  0.20418833  0.75508382  0.69074134    -1.12500
C30         C  0.22989925  0.80285546  0.56464319     1.05700
O31         O  0.21984004  0.86504153  0.67706127    -0.79100
O32         O  0.16872687  0.80642001  0.63313667    -0.66700
Ni33       Ni  0.21868029  0.72609975  0.71802660     1.34900
C34         C  0.15180139  0.77240666  0.62540575     0.84400
O35         O  0.21723582  0.79524228  0.75843340    -0.79600
O36         O  0.23010815  0.75238695  0.76575804    -0.89900
C37         C  0.24456848  0.87693420  0.70330106     0.84000
O38         O  0.26945522  0.75634166  0.70117599    -0.68100
O39         O  0.22353238  0.82603410  0.57906934    -0.87400
C40         C  0.29088998  0.79026919  0.70867834     0.84800
C41         C  0.22371843  0.77555003  0.77960980     1.06400
H42         H  0.26666986  0.82872302  0.64826056     0.38200
O43         O  0.23983085  0.81550697  0.65257736    -1.10000
O44         O  0.16871042  0.75542875  0.62505025    -0.66700
Ni45       Ni  0.21828034  0.76606588  0.63713489     1.26300
O46         O  0.27835851  0.81108293  0.71386328    -0.66900
O47         O  0.23271351  0.77980864  0.58477655    -0.79200
C48         C  0.19894432  0.69103002  0.64095307     0.84200
O49         O  0.19899285  0.71631031  0.62243025    -0.66400
Ni50       Ni  0.22158919  0.84315479  0.62936005     1.27400
Ni51       Ni  0.22963362  0.80565059  0.70554986     1.26100
H52         H  0.17740091  0.74382263  0.69383285     0.38800
O53         O  0.49672046  0.78748653  0.34903580    -0.81200
O54         O  0.61784505  0.74699769  0.38994764    -0.65900
O55         O  0.56535103  0.79352097  0.36373493    -1.12500
C56         C  0.58413672  0.76680350  0.23785845     1.05700
O57         O  0.66297293  0.78009615  0.34793416    -0.79100
O58         O  0.65565315  0.82838283  0.30285796    -0.66700
Ni59       Ni  0.51959072  0.77787065  0.39123822     1.34900
C60         C  0.63863026  0.84477453  0.29679196     0.84400
O61         O  0.59482310  0.78302180  0.43106577    -0.79600
O62         O  0.53623084  0.76858552  0.43913934    -0.89900
C63         C  0.64945292  0.75691013  0.37531770     0.84000
O64         O  0.49770191  0.72834965  0.37509891    -0.68100
O65         O  0.61524929  0.77337898  0.25132753    -0.87400
C66         C  0.51094732  0.70863891  0.38175622     0.84800
C67         C  0.56765891  0.77625003  0.45259635     1.06400
H68         H  0.57412057  0.73313386  0.32218652     0.38200
O69         O  0.58944800  0.75940848  0.32574284    -1.10000
O70         O  0.60287512  0.82810980  0.29769317    -0.66700
Ni71       Ni  0.56084826  0.77924921  0.31052300     1.26300
O72         O  0.54588046  0.72221041  0.38788837    -0.66900
O73         O  0.55813503  0.76445685  0.25863064    -0.79200
C74         C  0.50333782  0.79594746  0.31377818     0.84200
O75         O  0.52987882  0.79688768  0.29575468    -0.66400
Ni76       Ni  0.63677060  0.77690943  0.30091181     1.27400
Ni77       Ni  0.59151976  0.77032444  0.37847515     1.26100
H78         H  0.58205656  0.81979025  0.36634884     0.38800
O79         O  0.50657545  0.79571907  0.84815155    -0.81200
O80         O  0.62151484  0.74850545  0.89120468    -0.65900
O81         O  0.57265249  0.79827971  0.86503007    -1.12500
C82         C  0.59638281  0.77679308  0.73814774     1.05700
O83         O  0.66893044  0.78343210  0.85180950    -0.79100
O84         O  0.66530421  0.83403817  0.80809900    -0.66700
Ni85       Ni  0.52640314  0.78363136  0.89073443     1.34900
C86         C  0.64897971  0.85115234  0.80287385     0.84400
O87         O  0.59717897  0.78267756  0.93310216    -0.79600
O88         O  0.53950744  0.77124071  0.93852950    -0.89900
C89         C  0.65400974  0.75940681  0.87837053     0.84000
O90         O  0.50347036  0.73467528  0.87306112    -0.68100
O91         O  0.62677783  0.78196605  0.75239103    -0.87400
C92         C  0.51497850  0.71336227  0.87874197     0.84800
C93         C  0.56914540  0.77578950  0.95326677     1.06400
H94         H  0.58170029  0.73887012  0.82147564     0.38200
O95         O  0.59726434  0.76489775  0.82650630    -1.10000
O96         O  0.61338335  0.83513910  0.80192101    -0.66700
Ni97       Ni  0.57035429  0.78634582  0.81118518     1.26300
O98         O  0.54947503  0.72509807  0.88559067    -0.66900
O99         O  0.57004302  0.77409963  0.75867721    -0.79200
C100        C  0.51432138  0.80488289  0.81323319     0.84200
O101        O  0.54107077  0.80569179  0.79586370    -0.66400
Ni102      Ni  0.64550401  0.78265553  0.80348043     1.27400
Ni103      Ni  0.59661698  0.77306259  0.87981139     1.26100
H104        H  0.59002683  0.82427872  0.86902606     0.38800
O105        O  0.21565309  0.49495045  0.98801771    -0.81200
O106        O  0.25433076  0.38207547  0.95073333    -0.65900
O107        O  0.19745867  0.42334534  0.97642151    -1.12500
C108        C  0.22960570  0.41434457  0.10275661     1.05700
O109        O  0.22426279  0.33862660  0.99505929    -0.79100
O110        O  0.16937803  0.34008893  0.03861991    -0.66700
Ni111      Ni  0.20008682  0.46108338  0.94607271     1.34900
C112        C  0.15079787  0.35482497  0.04571818     0.84400
O113        O  0.21469803  0.40098917  0.90774240    -0.79600
O114        O  0.18471937  0.43046205  0.90164733    -0.89900
C115        C  0.24723776  0.35267538  0.96691476     0.84000
O116        O  0.25127830  0.48495415  0.92967361    -0.68100
O117        O  0.22466310  0.38439441  0.09005527    -0.87400
C118        C  0.27761626  0.47975860  0.93610511     0.84800
C119        C  0.19758418  0.41223789  0.88765602     1.06400
H120        H  0.26439324  0.42404560  0.01850415     0.38200
O121        O  0.23761829  0.40733230  0.01496499    -1.10000
O122        O  0.16609654  0.38948053  0.04455757    -0.66700
Ni123      Ni  0.21363224  0.43217705  0.02885886     1.26300
O124        O  0.27228053  0.45122699  0.95311709    -0.66900
O125        O  0.23020738  0.43851611  0.08112807    -0.79200
C126        C  0.20033887  0.48872885  0.02087030     0.84200
O127        O  0.19153341  0.45991526  0.03957809    -0.66400
Ni128      Ni  0.22342440  0.36306074  0.04124459     1.27400
Ni129      Ni  0.22630537  0.40371743  0.96157015     1.26100
H130        H  0.17140518  0.40327357  0.97576386     0.38800
O131        O  0.21828488  0.49005059  0.49167342    -0.81200
O132        O  0.24944769  0.37211920  0.45351816    -0.65900
O133        O  0.19649623  0.41790046  0.47660762    -1.12500
C134        C  0.22151003  0.40414203  0.60428492     1.05700
O135        O  0.21631914  0.32831192  0.49696298    -0.79100
O136        O  0.16280828  0.33143574  0.53965688    -0.66700
Ni137      Ni  0.20396295  0.45852002  0.44789377     1.34900
C138        C  0.14488806  0.34703442  0.54505760     0.84400
O139        O  0.21663939  0.39732664  0.40833709    -0.79600
O140        O  0.19085956  0.43070661  0.40165429    -0.89900
C141        C  0.23933399  0.34142859  0.46883059     0.84000
O142        O  0.25573785  0.48054544  0.43566625    -0.68100
O143        O  0.21734725  0.37441586  0.59189621    -0.87400
C144        C  0.28011255  0.47282665  0.44266810     0.84800
C145        C  0.20354717  0.41232943  0.38763238     1.06400
H146        H  0.25888466  0.41391303  0.52194094     0.38200
O147        O  0.23225948  0.39787790  0.51700660    -1.10000
O148        O  0.16072524  0.38170286  0.54272261    -0.66700
Ni149      Ni  0.20941438  0.42400179  0.52979036     1.26300
O150        O  0.27211862  0.44271414  0.45801389    -0.66900
O151        O  0.22309041  0.42854685  0.58246989    -0.79200
C152        C  0.20053820  0.48292182  0.52313449     0.84200
O153        O  0.18819312  0.45251961  0.54003467    -0.66400
Ni154      Ni  0.21631504  0.35307901  0.54308006     1.27400
Ni155      Ni  0.22401107  0.39651027  0.46304073     1.26100
H156        H  0.17013598  0.39894482  0.47415218     0.38800
O157        O  0.52181688  0.19189909  0.34229751    -0.81200
O158        O  0.40490293  0.23943966  0.37837594    -0.65900
O159        O  0.45574500  0.19096990  0.35402457    -1.12500
C160        C  0.44033899  0.21633361  0.22649500     1.05700
O161        O  0.36164503  0.20936613  0.33360424    -0.79100
O162        O  0.36825425  0.15876198  0.29518889    -0.66700
Ni163      Ni  0.49963034  0.20366787  0.38290823     1.34900
C164        C  0.38438835  0.14149902  0.28992040     0.84400
O165        O  0.42626002  0.20344524  0.42076119    -0.79600
O166        O  0.48378994  0.21547445  0.42917422    -0.89900
C167        C  0.37361159  0.22966565  0.36312237     0.84000
O168        O  0.52422533  0.25306033  0.36588019    -0.68100
O169        O  0.40913390  0.20983612  0.23951586    -0.87400
C170        C  0.51282340  0.27440894  0.37186784     0.84800
C171        C  0.45321780  0.21008267  0.44236609     1.06400
H172        H  0.45037308  0.25298967  0.31076472     0.38200
O173        O  0.43452228  0.22674202  0.31451738    -1.10000
O174        O  0.41997983  0.15737670  0.28838458    -0.66700
Ni175      Ni  0.46241292  0.20570882  0.30062159     1.26300
O176        O  0.47804564  0.26292866  0.37690481    -0.66900
O177        O  0.46653893  0.22015761  0.24802912    -0.79200
C178        C  0.51744487  0.18569481  0.30662206     0.84200
O179        O  0.49290488  0.18711964  0.28731029    -0.66400
Ni180      Ni  0.38810802  0.20978555  0.28838002     1.27400
Ni181      Ni  0.43092497  0.21568916  0.36767116     1.26100
H182        H  0.43797775  0.16483372  0.35654812     0.38800
O183        O  0.51544710  0.18386634  0.83605093    -0.81200
O184        O  0.40891637  0.24152935  0.88028493    -0.65900
O185        O  0.45254632  0.18696923  0.85265216    -1.12500
C186        C  0.43344055  0.21443970  0.72699019     1.05700
O187        O  0.36182511  0.20925748  0.83997190    -0.79100
O188        O  0.36152796  0.15689045  0.79481570    -0.66700
Ni189      Ni  0.49743808  0.19788890  0.87862370     1.34900
C190        C  0.37672902  0.13875313  0.78907222     0.84400
O191        O  0.42942471  0.20348561  0.92100496    -0.79600
O192        O  0.48548956  0.21114960  0.92659470    -0.89900
C193        C  0.37712282  0.23259398  0.86696904     0.84000
O194        O  0.52401645  0.24751628  0.86145172    -0.68100
O195        O  0.40350998  0.21024965  0.74121458    -0.87400
C196        C  0.51466197  0.27043132  0.86783219     0.84800
C197        C  0.45634320  0.20787664  0.94126678     1.06400
H198        H  0.44890060  0.25036061  0.81033162     0.38200
O199        O  0.43212559  0.22433570  0.81495174    -1.10000
O200        O  0.41218695  0.15380827  0.78853101    -0.66700
Ni201      Ni  0.45672428  0.20075434  0.79917307     1.26300
O202        O  0.48054672  0.26066456  0.87431496    -0.66900
O203        O  0.45881849  0.21494471  0.74714014    -0.79200
C204        C  0.50798575  0.17605360  0.80091533     0.84200
O205        O  0.48334541  0.17868110  0.78337659    -0.66400
Ni206      Ni  0.38468342  0.20931595  0.79184847     1.27400
Ni207      Ni  0.43143160  0.21465112  0.86802662     1.26100
H208        H  0.43376191  0.16115320  0.85601455     0.38800
O209        O  0.83143194  0.29536977  0.17446710    -0.81200
O210        O  0.77333368  0.12928810  0.21741624    -0.65900
O211        O  0.82869641  0.23072391  0.18899760    -1.12500
C212        C  0.79947275  0.18357620  0.06393506     1.05700
O213        O  0.80344941  0.11568243  0.17560287    -0.79100
O214        O  0.85921992  0.17631232  0.13398569    -0.66700
Ni215      Ni  0.81691075  0.26176901  0.21613686     1.34900
C216        C  0.87724373  0.21032529  0.12528272     0.84400
O217        O  0.81427441  0.19092865  0.25745156    -0.79600
O218        O  0.80233779  0.23445719  0.26348867    -0.89900
C219        C  0.78051525  0.10663989  0.20367813     0.84000
O220        O  0.76656827  0.23392843  0.19805193    -0.68100
O221        O  0.80681677  0.16074861  0.07775165    -0.87400
C222        C  0.74358057  0.20035227  0.20640945     0.84800
C223        C  0.80759133  0.21076931  0.27804696     1.06400
H224        H  0.76272144  0.15742033  0.14854208     0.38200
O225        O  0.78958274  0.16991374  0.15217229    -1.10000
O226        O  0.86091869  0.22780829  0.12249912    -0.66700
Ni227      Ni  0.81241036  0.21935175  0.13616849     1.26300
O228        O  0.75417836  0.17817144  0.21305177    -0.66900
O229        O  0.79563582  0.20539321  0.08482518    -0.79200
C230        C  0.83648036  0.29606711  0.13864933     0.84200
O231        O  0.83275273  0.26901567  0.12036103    -0.66400
Ni232      Ni  0.80587252  0.14107675  0.12816801     1.27400
Ni233      Ni  0.80111625  0.18022826  0.20477186     1.26100
H234        H  0.85534334  0.24080828  0.19117105     0.38800
O235        O  0.81790770  0.29199611  0.67340121    -0.81200
O236        O  0.76920971  0.12976664  0.71674835    -0.65900
O237        O  0.82239964  0.23131502  0.69047314    -1.12500
C238        C  0.79902457  0.18640715  0.56353708     1.05700
O239        O  0.79971819  0.11696248  0.67486547    -0.79100
O240        O  0.85437632  0.17519050  0.63248327    -0.66700
Ni241      Ni  0.80734012  0.26050632  0.71635146     1.34900
C242        C  0.87387097  0.20979953  0.62766702     0.84400
O243        O  0.80772224  0.19070164  0.75772777    -0.79600
O244        O  0.79696410  0.23515599  0.76476082    -0.89900
C245        C  0.77746232  0.10789317  0.70333758     0.84000
O246        O  0.75632079  0.23002929  0.70029701    -0.68100
O247        O  0.80194408  0.16093069  0.57778107    -0.87400
C248        C  0.73488621  0.19584721  0.70662947     0.84800
C249        C  0.80275997  0.21154889  0.77872871     1.06400
H250        H  0.75915318  0.15999228  0.64707865     0.38200
O251        O  0.78577092  0.17151104  0.65164520    -1.10000
O252        O  0.85931949  0.22897371  0.62754296    -0.66700
Ni253      Ni  0.81070022  0.22172335  0.63676081     1.26300
O254        O  0.74746598  0.17534602  0.71264576    -0.66900
O255        O  0.79821428  0.21031389  0.58390224    -0.79200
C256        C  0.83106996  0.29628535  0.63981357     0.84200
O257        O  0.83430289  0.27221560  0.62303527    -0.66400
Ni258      Ni  0.80099821  0.14157489  0.62780860     1.27400
Ni259      Ni  0.79577452  0.18061375  0.70484957     1.26100
H260        H  0.84898429  0.24224144  0.69466077     0.38800
O261        O  0.81640203  0.49334049  0.98102592    -0.81200
O262        O  0.77437818  0.60295894  0.94237103    -0.65900
O263        O  0.83358086  0.56382253  0.96557021    -1.12500
C264        C  0.81214765  0.58213921  0.09248795     1.05700
O265        O  0.81181407  0.65025095  0.97972647    -0.79100
O266        O  0.86664880  0.65085064  0.02269668    -0.66700
Ni267      Ni  0.82985332  0.52497112  0.93728221     1.34900
C268        C  0.88531217  0.63623055  0.02911076     0.84400
O269        O  0.81069337  0.58117246  0.89737516    -0.79600
O270        O  0.84265397  0.55359600  0.89146967    -0.89900
C271        C  0.78559322  0.63482865  0.95491438     0.84000
O272        O  0.77810091  0.50034513  0.92390255    -0.68100
O273        O  0.81443196  0.61055442  0.07830198    -0.87400
C274        C  0.75154318  0.50491591  0.93149679     0.84800
C275        C  0.82799575  0.57013945  0.87723625     1.06400
H276        H  0.77026005  0.56604604  0.01200425     0.38200
O277        O  0.79661234  0.58230931  0.00576229    -1.10000
O278        O  0.87011076  0.60167283  0.02940430    -0.66700
Ni279      Ni  0.82175539  0.55848859  0.01903694     1.26300
O280        O  0.75690375  0.53358843  0.94819021    -0.66900
O281        O  0.81033655  0.55663156  0.07230873    -0.79200
C282        C  0.83354070  0.50101692  0.01284879     0.84200
O283        O  0.84448453  0.53122056  0.02958691    -0.66400
Ni284      Ni  0.81328988  0.62876020  0.02804575     1.27400
Ni285      Ni  0.80320000  0.58193478  0.95182722     1.26100
H286        H  0.85933956  0.58407014  0.96234472     0.38800
O287        O  0.81747058  0.49451126  0.47894473    -0.81200
O288        O  0.77471395  0.60591926  0.44497919    -0.65900
O289        O  0.83393134  0.56560481  0.46476767    -1.12500
C290        C  0.81390504  0.58126862  0.59263416     1.05700
O291        O  0.81159158  0.65228829  0.48367421    -0.79100
O292        O  0.86800584  0.65152336  0.52258325    -0.66700
Ni293      Ni  0.82912915  0.52648976  0.43562464     1.34900
C294        C  0.88662003  0.63670717  0.52821101     0.84400
O295        O  0.81106988  0.58505314  0.39794711    -0.79600
O296        O  0.84051971  0.55515467  0.39003082    -0.89900
C297        C  0.78492824  0.63697892  0.45932620     0.84000
O298        O  0.77679976  0.50173900  0.42452331    -0.68100
O299        O  0.81768939  0.61067116  0.57944446    -0.87400
C300        C  0.75096085  0.50710209  0.43305303     0.84800
C301        C  0.82755073  0.57364473  0.37698998     1.06400
H302        H  0.77108126  0.56749263  0.51300444     0.38200
O303        O  0.79744186  0.58371929  0.50661752    -1.10000
O304        O  0.87114143  0.60213063  0.52891871    -0.66700
Ni305      Ni  0.82241861  0.55936958  0.51825431     1.26300
O306        O  0.75730036  0.53651434  0.44875424    -0.66900
O307        O  0.81081560  0.55581348  0.57147773    -0.79200
C308        C  0.83404308  0.50210523  0.51110962     0.84200
O309        O  0.84525430  0.53234150  0.52761476    -0.66400
Ni310      Ni  0.81495488  0.62978129  0.53040715     1.27400
Ni311      Ni  0.80373936  0.58454148  0.45261191     1.26100
H312        H  0.85977474  0.58564269  0.46148212     0.38800
C313        C  0.79829314  0.61749970  0.72098852    -0.18100
C314        C  0.80110678  0.61681706  0.76076255    -0.20300
C315        C  0.81401839  0.59638584  0.77794147     0.20400
C316        C  0.82422907  0.57643640  0.75478866    -0.03200
C317        C  0.82094171  0.57674923  0.71464491    -0.06300
C318        C  0.80798555  0.59747221  0.69778584     0.20600
C319        C  0.83054328  0.55633984  0.69143231     0.18800
C320        C  0.84378126  0.53615693  0.70862155    -0.17800
C321        C  0.84720847  0.53598753  0.74844864    -0.20000
C322        C  0.83741641  0.55595729  0.77173402     0.20300
C323        C  0.84006121  0.55537336  0.81168057    -0.33000
C324        C  0.82927287  0.57464003  0.83508374     0.01000
C325        C  0.81644009  0.59522861  0.81787405    -0.24300
C326        C  0.80504980  0.59798777  0.65799485    -0.28900
C327        C  0.81448947  0.57779203  0.63460890     0.06700
C328        C  0.82696329  0.55674088  0.65149589    -0.27600
H329        H  0.78834964  0.63357312  0.70836495     0.11400
H330        H  0.79316476  0.63227591  0.77810072     0.12500
H331        H  0.85143778  0.52046923  0.69127602     0.11600
H332        H  0.85735265  0.52008097  0.76106288     0.10800
H333        H  0.84950352  0.53896440  0.82453971     0.16200
H334        H  0.80780249  0.60994871  0.83554329     0.12100
H335        H  0.79543116  0.61427107  0.64515880     0.15000
H336        H  0.83483377  0.54154406  0.63356559     0.14800
C337        C  0.78863198  0.60973553  0.26081707    -0.18100
C338        C  0.78539961  0.60974875  0.22099428    -0.20300
C339        C  0.80177271  0.59573947  0.19766027     0.20400
C340        C  0.82221097  0.58218763  0.21453742    -0.03200
C341        C  0.82594998  0.58269528  0.25470288    -0.06300
C342        C  0.80865219  0.59609669  0.27795430     0.20600
C343        C  0.84638062  0.56917312  0.27158181     0.18800
C344        C  0.86345963  0.55588647  0.24819830    -0.17800
C345        C  0.85954251  0.55514884  0.20839935    -0.20000
C346        C  0.83860766  0.56782058  0.19132956     0.20300
C347        C  0.83383601  0.56646961  0.15149624    -0.33000
C348        C  0.81367141  0.58012158  0.13453853     0.01000
C349        C  0.79803443  0.59501846  0.15776087    -0.24300
C350        C  0.81083389  0.59477636  0.31792614    -0.28900
C351        C  0.83005990  0.58017149  0.33506865     0.06700
C352        C  0.84850321  0.56822026  0.31155663    -0.27600
H353        H  0.77524193  0.62017757  0.27823907     0.11400
H354        H  0.76971556  0.62034990  0.20845425     0.12500
H355        H  0.87939536  0.54555363  0.26072980     0.11600
H356        H  0.87263587  0.54438963  0.19098617     0.10800
H357        H  0.84673880  0.55581538  0.13357674     0.16200
H358        H  0.78281005  0.60591734  0.14470819     0.12100
H359        H  0.79642358  0.60395496  0.33563065     0.15000
H360        H  0.86349776  0.55695521  0.32430742     0.14800
C361        C  0.85579527  0.42077059  0.64451079    -0.18100
C362        C  0.85512250  0.44934154  0.62673160    -0.20300
C363        C  0.84871516  0.44837663  0.58722444     0.20400
C364        C  0.84366851  0.41865252  0.56533557    -0.03200
C365        C  0.84481569  0.39007958  0.58317285    -0.06300
C366        C  0.85030002  0.39091327  0.62302152     0.20600
C367        C  0.83917861  0.36008225  0.56132539     0.18800
C368        C  0.83297984  0.35921033  0.52182734    -0.17800
C369        C  0.83148882  0.38734961  0.50421906    -0.20000
C370        C  0.83651139  0.41696536  0.52576377     0.20300
C371        C  0.83388091  0.44459425  0.50844909    -0.33000
C372        C  0.83858852  0.47418409  0.52997396     0.01000
C373        C  0.84651190  0.47617658  0.56932075    -0.24300
C374        C  0.84845521  0.36108302  0.64091773    -0.28900
C375        C  0.84097908  0.33030049  0.61958560     0.06700
C376        C  0.83792836  0.33062370  0.57961847    -0.27600
H377        H  0.86001200  0.42173601  0.67517753     0.11400
H378        H  0.85899292  0.47188452  0.64397937     0.12500
H379        H  0.82846530  0.33635929  0.50468315     0.11600
H380        H  0.82599100  0.38574663  0.47377445     0.10800
H381        H  0.82799155  0.44294227  0.47807383     0.16200
H382        H  0.84999934  0.49880004  0.58615906     0.12100
H383        H  0.85121379  0.36111941  0.67177291     0.15000
H384        H  0.83199899  0.30691406  0.56309852     0.14800
C385        C  0.82248959  0.38193874  0.00556308    -0.18100
C386        C  0.82403541  0.35359560  0.02263519    -0.20300
C387        C  0.83541003  0.35640108  0.06084040     0.20400
C388        C  0.84594705  0.38841181  0.08184032    -0.03200
C389        C  0.84445716  0.41707766  0.06457239    -0.06300
C390        C  0.83231805  0.41357824  0.02639633     0.20600
C391        C  0.85438211  0.44885680  0.08571692     0.18800
C392        C  0.86614322  0.45180239  0.12381271    -0.17800
C393        C  0.86737277  0.42328520  0.14101335    -0.20000
C394        C  0.85703657  0.39139589  0.12036747     0.20300
C395        C  0.85634056  0.36194219  0.13796776    -0.33000
C396        C  0.84450571  0.32934466  0.11768646     0.01000
C397        C  0.83510303  0.32723001  0.07877962    -0.24300
C398        C  0.82957423  0.44145996  0.00984430    -0.28900
C399        C  0.83872472  0.47300204  0.03080304     0.06700
C400        C  0.85168053  0.47674950  0.06862903    -0.27600
H401        H  0.81318089  0.37892354  0.97615169     0.11400
H402        H  0.81581418  0.32924390  0.00610931     0.12500
H403        H  0.87389688  0.47595364  0.14048729     0.11600
H404        H  0.87596085  0.42598018  0.17065686     0.10800
H405        H  0.86367865  0.36389095  0.16797221     0.16200
H406        H  0.82551966  0.30213593  0.06303184     0.12100
H407        H  0.81985342  0.43831026  0.98056607     0.15000
H408        H  0.85886676  0.50091553  0.08500712     0.14800
C409        C  0.79440645  0.25142970  0.90917190    -0.18100
C410        C  0.79300843  0.24692924  0.94894604    -0.20300
C411        C  0.79498261  0.21842056  0.96531181     0.20400
C412        C  0.79836467  0.19419123  0.94135608    -0.03200
C413        C  0.80006126  0.19890258  0.90121359    -0.06300
C414        C  0.79794730  0.22758196  0.88506379     0.20600
C415        C  0.80389709  0.17492351  0.87729449     0.18800
C416        C  0.80576187  0.14636987  0.89363802    -0.17800
C417        C  0.80384801  0.14156718  0.93336511    -0.20000
C418        C  0.80033208  0.16541324  0.95748343     0.20300
C419        C  0.79943529  0.16135915  0.99743285    -0.33000
C420        C  0.79694910  0.18591327  0.02166370     0.01000
C421        C  0.79422421  0.21409733  0.00520216    -0.24300
C422        C  0.79918776  0.23176857  0.84512326    -0.28900
C423        C  0.80268657  0.20773956  0.82098801     0.06700
C424        C  0.80544820  0.17964407  0.83745619    -0.27600
H425        H  0.79277257  0.27361906  0.89726682     0.11400
H426        H  0.79045427  0.26581113  0.96692726     0.12500
H427        H  0.80862742  0.12767284  0.87566931     0.11600
H428        H  0.80538239  0.11931740  0.94525047     0.10800
H429        H  0.80143233  0.13947235  0.00963063     0.16200
H430        H  0.79235711  0.23326768  0.02341834     0.12100
H431        H  0.79724661  0.25367446  0.83287606     0.15000
H432        H  0.80824342  0.16102088  0.81926450     0.14800
C433        C  0.81304528  0.14724511  0.43536584    -0.18100
C434        C  0.81423873  0.15052351  0.39549646    -0.20300
C435        C  0.80808729  0.17588321  0.37779198     0.20400
C436        C  0.80025776  0.19789932  0.40050173    -0.03200
C437        C  0.79886840  0.19446376  0.44075235    -0.06300
C438        C  0.80546725  0.16912449  0.45819329     0.20600
C439        C  0.79130814  0.21664835  0.46350854     0.18800
C440        C  0.78487889  0.24182612  0.44577003    -0.17800
C441        C  0.78632252  0.24527976  0.40587914    -0.20000
C442        C  0.79419015  0.22359499  0.38305050     0.20300
C443        C  0.79645231  0.22742171  0.34311879    -0.33000
C444        C  0.80469142  0.20588636  0.32021094     0.01000
C445        C  0.81006958  0.17988372  0.33783716    -0.24300
C446        C  0.80475599  0.16631012  0.49816457    -0.28900
C447        C  0.79764497  0.18855583  0.52121752     0.06700
C448        C  0.79074822  0.21356913  0.50356667    -0.27600
H449        H  0.81819635  0.12766406  0.44836953     0.11400
H450        H  0.82026471  0.13340563  0.37851312     0.12500
H451        H  0.77900447  0.25905019  0.46276584     0.11600
H452        H  0.78151486  0.26509808  0.39288398     0.10800
H453        H  0.79199289  0.24741237  0.32993498     0.16200
H454        H  0.81616815  0.16298304  0.32053041     0.12100
H455        H  0.81037100  0.14709130  0.51130382     0.15000
H456        H  0.78527892  0.23087956  0.52095395     0.14800
C457        C  0.62396199  0.13262157  0.78904110    -0.18100
C458        C  0.59203958  0.13065296  0.80339194    -0.20300
C459        C  0.57559551  0.14639866  0.78305173     0.20400
C460        C  0.59038594  0.16284378  0.74707399    -0.03200
C461        C  0.62331757  0.16583427  0.73314199    -0.06300
C462        C  0.64044953  0.15110133  0.75455847     0.20600
C463        C  0.64050538  0.18576255  0.69921948     0.18800
C464        C  0.62283937  0.19972921  0.67785408    -0.17800
C465        C  0.58954366  0.19578226  0.69107113    -0.20000
C466        C  0.57381536  0.17850995  0.72628121     0.20300
C467        C  0.54361736  0.17902726  0.74237065    -0.33000
C468        C  0.53116976  0.16572689  0.77970849     0.01000
C469        C  0.54625055  0.14813826  0.79919528    -0.24300
C470        C  0.67522370  0.15751073  0.74271115    -0.28900
C471        C  0.69422400  0.18041440  0.71119714     0.06700
C472        C  0.67619836  0.19343280  0.68876412    -0.27600
H473        H  0.63676865  0.12117673  0.80581240     0.11400
H474        H  0.58087643  0.11776417  0.83096624     0.12500
H475        H  0.63540767  0.21472547  0.65151746     0.11600
H476        H  0.57709027  0.20777206  0.67462582     0.10800
H477        H  0.53221727  0.19279635  0.72734629     0.19800
H478        H  0.53651047  0.13760011  0.82788371     0.12100
H479        H  0.68920104  0.14771596  0.76022442     0.15000
H480        H  0.69077991  0.21100172  0.66434063     0.14800
C481        C  0.61395825  0.41784888  0.95228763    -0.18100
C482        C  0.58050797  0.38489374  0.94272106    -0.20300
C483        C  0.57874852  0.36493249  0.91027345     0.20400
C484        C  0.61080474  0.37882897  0.88667957    -0.03200
C485        C  0.64457028  0.41205828  0.89636794    -0.06300
C486        C  0.64638477  0.43149409  0.92965157     0.20600
C487        C  0.67687188  0.42507902  0.87347574     0.18800
C488        C  0.67496172  0.40576282  0.84044054    -0.17800
C489        C  0.64162891  0.37288609  0.83092398    -0.20000
C490        C  0.60962376  0.35878505  0.85426654     0.20300
C491        C  0.57707987  0.32424602  0.84677436    -0.33000
C492        C  0.54546968  0.30959287  0.87096615     0.01000
C493        C  0.54609980  0.33060283  0.90196141    -0.24300
C494        C  0.68088617  0.46333329  0.94039508    -0.28900
C495        C  0.71356298  0.47524874  0.91858751     0.06700
C496        C  0.71092278  0.45643438  0.88469406    -0.27600
H497        H  0.61466395  0.43227622  0.97787727     0.11400
H498        H  0.55617713  0.37462348  0.96118470     0.12500
H499        H  0.69954410  0.41563158  0.82244064     0.11600
H500        H  0.64116011  0.35803585  0.80579602     0.10800
H501        H  0.57678521  0.30808941  0.82295432     0.16200
H502        H  0.52205938  0.31914457  0.92106827     0.12100
H503        H  0.68271566  0.47763023  0.96653496     0.15000
H504        H  0.73588357  0.46575093  0.86741856     0.14800
C505        C  0.60572063  0.14442753  0.31009345    -0.18100
C506        C  0.63673548  0.14521891  0.29478952    -0.20300
C507        C  0.65269690  0.16314957  0.25993304     0.20400
C508        C  0.63642800  0.17931061  0.23957262    -0.03200
C509        C  0.60434630  0.17746805  0.25443907    -0.06300
C510        C  0.58958416  0.16080789  0.29036199     0.20600
C511        C  0.58801541  0.19359446  0.23411453     0.18800
C512        C  0.60379249  0.21121910  0.19905483    -0.17800
C513        C  0.63635027  0.21414739  0.18499052    -0.20000
C514        C  0.65316323  0.19869367  0.20526152     0.20300
C515        C  0.68727852  0.20365547  0.19285289    -0.33000
C516        C  0.70407971  0.18835589  0.21363098     0.01000
C517        C  0.68580736  0.16691618  0.24622654    -0.24300
C518        C  0.55988693  0.16203800  0.30655122    -0.28900
C519        C  0.54397271  0.17875111  0.28682421     0.06700
C520        C  0.55733507  0.19332600  0.25003461    -0.27600
H521        H  0.59465197  0.13140457  0.33763121     0.11400
H522        H  0.64897501  0.13279315  0.31082670     0.12500
H523        H  0.59162163  0.22374681  0.18307989     0.11600
H524        H  0.64868247  0.22895476  0.15850746     0.10800
H525        H  0.70147407  0.22047991  0.16787038     0.16200
H526        H  0.69906945  0.15576205  0.26276648     0.12100
H527        H  0.54973526  0.15080286  0.33494249     0.15000
H528        H  0.54555496  0.20670954  0.23494462     0.14800
C529        C  0.66669432  0.41521797  0.33917876    -0.18100
C530        C  0.63291931  0.38265927  0.33001681    -0.20300
C531        C  0.60367584  0.36543039  0.35696962     0.20400
C532        C  0.60810886  0.38171074  0.39320466    -0.03200
C533        C  0.64240738  0.41447556  0.40259958    -0.06300
C534        C  0.67187981  0.43098351  0.37552308     0.20600
C535        C  0.64767507  0.42998530  0.43944247     0.18800
C536        C  0.61827437  0.41268930  0.46630523    -0.17800
C537        C  0.58419413  0.38030725  0.45692860    -0.20000
C538        C  0.57889351  0.36446555  0.42056737     0.20300
C539        C  0.54572266  0.33077877  0.41172059    -0.33000
C540        C  0.54210444  0.31361036  0.37644830     0.01000
C541        C  0.57086257  0.33133679  0.34899905    -0.24300
C542        C  0.70650410  0.46226377  0.38563181    -0.28900
C543        C  0.71233047  0.47754932  0.42239145     0.06700
C544        C  0.68261645  0.46176337  0.44904595    -0.27600
H545        H  0.68909057  0.42766922  0.31808248     0.11400
H546        H  0.62993972  0.37057706  0.30207525     0.12500
H547        H  0.62180287  0.42395376  0.49477600     0.11600
H548        H  0.56220350  0.36726540  0.47840077     0.10800
H549        H  0.52395725  0.31657501  0.43328845     0.16200
H550        H  0.56831215  0.31773829  0.32209172     0.12100
H551        H  0.72947558  0.47434910  0.36511344     0.15000
H552        H  0.68725625  0.47313863  0.47760552     0.14800
C553        C  0.49706745  0.21046671  0.61077326    -0.18100
C554        C  0.49946716  0.20955027  0.57101781    -0.20300
C555        C  0.47429880  0.21258495  0.54773171     0.20400
C556        C  0.44680678  0.21722571  0.56444859    -0.03200
C557        C  0.44453971  0.21839326  0.60464215    -0.06300
C558        C  0.46959995  0.21465232  0.62782024     0.20600
C559        C  0.41680527  0.22256333  0.62160799     0.18800
C560        C  0.39208578  0.22627980  0.59817778    -0.17800
C561        C  0.39427127  0.22501634  0.55824259    -0.20000
C562        C  0.42125129  0.22005896  0.54106496     0.20300
C563        C  0.42296923  0.21747263  0.50104330    -0.33000
C564        C  0.45021446  0.21247302  0.48434108     0.01000
C565        C  0.47593745  0.21050446  0.50800255    -0.24300
C566        C  0.46638264  0.21443348  0.66766302    -0.28900
C567        C  0.43829141  0.21768803  0.68491216     0.06700
C568        C  0.41385522  0.22220144  0.66165608    -0.27600
H569        H  0.51649771  0.20757862  0.62820229     0.11400
H570        H  0.52075302  0.20602441  0.55847180     0.12500
H571        H  0.37073479  0.22969067  0.61075235     0.11600
H572        H  0.37459875  0.22752043  0.54081199     0.10800
H573        H  0.40335034  0.21951718  0.48299504     0.16200
H574        H  0.49708404  0.20672258  0.49550514     0.12100
H575        H  0.48524790  0.21077693  0.68520842     0.15000
H576        H  0.39217172  0.22487500  0.67465625     0.14800
C577        C  0.39671396  0.22335903  0.09760711    -0.18100
C578        C  0.39858667  0.22179323  0.05775349    -0.20300
C579        C  0.42557759  0.21694818  0.04052627     0.20400
C580        C  0.45113164  0.21393935  0.06368889    -0.03200
C581        C  0.44933600  0.21566163  0.10391393    -0.06300
C582        C  0.42191000  0.22026953  0.12088351     0.20600
C583        C  0.47480603  0.21253534  0.12711157     0.18800
C584        C  0.50171753  0.20758165  0.10984921    -0.17800
C585        C  0.50350365  0.20588011  0.06998633    -0.20000
C586        C  0.47838454  0.20906497  0.04670214     0.20300
C587        C  0.47995578  0.20729505  0.00675281    -0.33000
C588        C  0.45441924  0.20999736  0.98342581     0.01000
C589        C  0.42734645  0.21490761  0.00058717    -0.24300
C590        C  0.41990266  0.22136968  0.16083978    -0.28900
C591        C  0.44503470  0.21808533  0.18429968     0.06700
C592        C  0.47264983  0.21399279  0.16713161    -0.27600
H593        H  0.37548069  0.22691154  0.11024220     0.11400
H594        H  0.37881680  0.22422496  0.04040503     0.12500
H595        H  0.52136762  0.20496499  0.12719304     0.11600
H596        H  0.52452835  0.20201665  0.05735622     0.10800
H597        H  0.50090556  0.20344930  0.99385276     0.16200
H598        H  0.40774801  0.21731416  0.98288288     0.12100
H599        H  0.39845825  0.22450828  0.17368502     0.15000
H600        H  0.49183492  0.21100359  0.18489000     0.14800
C601        C  0.02407852  0.22822552  0.57391435    -0.18100
C602        C  0.98659043  0.20919322  0.58674963    -0.20300
C603        C  0.96983697  0.22828628  0.59799219     0.20400
C604        C  0.99134858  0.26698372  0.59660846    -0.03200
C605        C  0.02907299  0.28615493  0.58348961    -0.06300
C606        C  0.04559717  0.26676969  0.57190106     0.20600
C607        C  0.05015181  0.32478666  0.58183778     0.18800
C608        C  0.03383233  0.34400077  0.59376828    -0.17800
C609        C  0.99662383  0.32510000  0.60664556    -0.20000
C610        C  0.97507437  0.28663834  0.60789175     0.20300
C611        C  0.93732763  0.26763643  0.61952135    -0.33000
C612        C  0.91508373  0.22900996  0.62002125     0.01000
C613        C  0.93184899  0.20949682  0.60982119    -0.24300
C614        C  0.08324230  0.28632499  0.55864828    -0.28900
C615        C  0.10434822  0.32504628  0.55657408     0.06700
C616        C  0.08725039  0.34376571  0.56837084    -0.27600
H617        H  0.03616619  0.21274860  0.56533105     0.11400
H618        H  0.97061236  0.17947965  0.58764845     0.12500
H619        H  0.04980287  0.37372055  0.59289988     0.11600
H620        H  0.98458412  0.34059919  0.61533227     0.10800
H621        H  0.92501556  0.28311148  0.62737650     0.16200
H622        H  0.91507769  0.17976022  0.60985188     0.12100
H623        H  0.09606211  0.27148093  0.55017099     0.15000
H624        H  0.10303258  0.37349389  0.56766693     0.14800
C625        C  0.29546649  0.28066615  0.34444189    -0.18100
C626        C  0.27733255  0.29714942  0.35907847    -0.20300
C627        C  0.27426880  0.29988053  0.39873212     0.20400
C628        C  0.28896868  0.28519258  0.42393966    -0.03200
C629        C  0.30822572  0.26948930  0.40916397    -0.06300
C630        C  0.31149836  0.26731217  0.36921868     0.20600
C631        C  0.32503388  0.25688468  0.43431522     0.18800
C632        C  0.32076996  0.25843184  0.47398199    -0.17800
C633        C  0.30082480  0.27313440  0.48862989    -0.20000
C634        C  0.28533432  0.28710357  0.46388007     0.20300
C635        C  0.26724489  0.30390832  0.47829076    -0.33000
C636        C  0.25420695  0.32011526  0.45329359     0.01000
C637        C  0.25755887  0.31779191  0.41359906    -0.24300
C638        C  0.33166287  0.25278899  0.35472349    -0.28900
C639        C  0.35004297  0.24191085  0.37952704     0.06700
C640        C  0.34643910  0.24373741  0.41931253    -0.27600
H641        H  0.29772671  0.27914148  0.31370018     0.11400
H642        H  0.26598488  0.30806048  0.33936638     0.12500
H643        H  0.33318331  0.24860143  0.49369711     0.11600
H644        H  0.29824390  0.27433299  0.51936603     0.10800
H645        H  0.26489425  0.30595573  0.50896430     0.16200
H646        H  0.24728049  0.33009081  0.39435228     0.12100
H647        H  0.33447177  0.25142124  0.32401404     0.15000
H648        H  0.36020917  0.23489067  0.43844700     0.14800
C649        C  0.18628318  0.45063400  0.75780883    -0.18100
C650        C  0.19254117  0.45183173  0.71831531    -0.20300
C651        C  0.20527630  0.43086623  0.70206740     0.20400
C652        C  0.21159470  0.40836267  0.72586251    -0.03200
C653        C  0.20499050  0.40693004  0.76563885    -0.06300
C654        C  0.19249802  0.42833132  0.78170603     0.20600
C655        C  0.21129043  0.38436858  0.78934551     0.18800
C656        C  0.22374583  0.36320688  0.77307527    -0.17800
C657        C  0.23028131  0.36461790  0.73370578    -0.20000
C658        C  0.22428548  0.38706759  0.70991960     0.20300
C659        C  0.22974104  0.38772721  0.67033863    -0.33000
C660        C  0.22216785  0.40895886  0.64622263     0.01000
C661        C  0.21084128  0.43121454  0.66238742    -0.24300
C662        C  0.18752911  0.42787896  0.82148842    -0.28900
C663        C  0.19531455  0.40662915  0.84557374     0.06700
C664        C  0.20623410  0.38422268  0.82904266    -0.27600
H665        H  0.17671893  0.46728098  0.76969193     0.11400
H666        H  0.18738614  0.46913342  0.70047604     0.12500
H667        H  0.22872067  0.34575493  0.79086073     0.11600
H668        H  0.23989046  0.34800594  0.72182506     0.10800
H669        H  0.23870584  0.37068438  0.65814253     0.16200
H670        H  0.20465605  0.44745343  0.64398611     0.12100
H671        H  0.17938369  0.44552102  0.83379107     0.15000
H672        H  0.21230607  0.36776065  0.84720182     0.14800
C673        C  0.23491880  0.37030328  0.26997371    -0.18100
C674        C  0.24085297  0.37242486  0.23038285    -0.20300
C675        C  0.23558309  0.39611014  0.20780215     0.20400
C676        C  0.22483457  0.41833587  0.22530368    -0.03200
C677        C  0.21859343  0.41600323  0.26527684    -0.06300
C678        C  0.22349905  0.39174461  0.28769570     0.20600
C679        C  0.20712288  0.43767849  0.28270632     0.18800
C680        C  0.20252011  0.46185989  0.26018977    -0.17800
C681        C  0.20861871  0.46410990  0.22059721    -0.20000
C682        C  0.21949051  0.44226497  0.20278783     0.20300
C683        C  0.22369770  0.44289445  0.16278189    -0.33000
C684        C  0.23247418  0.41935947  0.14495105     0.01000
C685        C  0.23953092  0.39692726  0.16789585    -0.24300
C686        C  0.21713763  0.38948464  0.32742030    -0.28900
C687        C  0.20568599  0.41101573  0.34515526     0.06700
C688        C  0.20064611  0.43496650  0.32235342    -0.27600
H689        H  0.23896737  0.35164240  0.28670280     0.11400
H690        H  0.24913456  0.35517760  0.21734644     0.12500
H691        H  0.19389055  0.47885146  0.27317295     0.11600
H692        H  0.20434793  0.48260536  0.20383106     0.10800
H693        H  0.21811735  0.46019498  0.14545570     0.16200
H694        H  0.24670767  0.37893083  0.15456603     0.12100
H695        H  0.22166287  0.37136055  0.34457914     0.15000
H696        H  0.19261722  0.45235235  0.33556317     0.14800
C697        C  0.99653814  0.32758881  0.09607235    -0.18100
C698        C  0.03414481  0.34741418  0.08419682    -0.20300
C699        C  0.05290015  0.32945651  0.07685687     0.20400
C700        C  0.03365822  0.29113766  0.08183805    -0.03200
C701        C  0.99546882  0.27100275  0.09392382    -0.06300
C702        C  0.97690398  0.28939028  0.10090759     0.20600
C703        C  0.97583037  0.23257340  0.09868462     0.18800
C704        C  0.99483902  0.21475709  0.09151749    -0.17800
C705        C  0.03271105  0.23472322  0.07972002    -0.20000
C706        C  0.05247477  0.27298809  0.07459411     0.20300
C707        C  0.09054348  0.29341330  0.06234601    -0.33000
C708        C  0.10997082  0.33183777  0.05703454     0.01000
C709        C  0.09054428  0.34933460  0.06458163    -0.24300
C710        C  0.93891887  0.26937495  0.11214105    -0.28900
C711        C  0.91859015  0.23089083  0.11655699     0.06700
C712        C  0.93754928  0.21273199  0.11003711    -0.27600
H713        H  0.98273023  0.34216716  0.10130634     0.11400
H714        H  0.04854952  0.37687029  0.08059452     0.12500
H715        H  0.98036733  0.18528336  0.09493677     0.11600
H716        H  0.04650024  0.22014667  0.07441309     0.10800
H717        H  0.10500062  0.27945514  0.05716414     0.16200
H718        H  0.10479190  0.37879726  0.06109357     0.12100
H719        H  0.92501601  0.28393607  0.11698519     0.15000
H720        H  0.92236683  0.18315605  0.11295482     0.14800
C721        C  0.28074094  0.30050095  0.86037991    -0.18100
C722        C  0.29789028  0.28263351  0.84687286    -0.20300
C723        C  0.31787029  0.27386398  0.87186777     0.20400
C724        C  0.32055170  0.28309654  0.91093206    -0.03200
C725        C  0.30224294  0.30016300  0.92480690    -0.06300
C726        C  0.28255108  0.30922036  0.89929518     0.20600
C727        C  0.30374121  0.30825669  0.96410933     0.18800
C728        C  0.32449317  0.30024433  0.98893766    -0.17800
C729        C  0.34353944  0.28430800  0.97498500    -0.20000
C730        C  0.34161502  0.27542454  0.93605449     0.20300
C731        C  0.36038093  0.25912563  0.92172690    -0.33000
C732        C  0.35712970  0.24919549  0.88288859     0.01000
C733        C  0.33550657  0.25636575  0.85833453    -0.24300
C734        C  0.26499719  0.32678282  0.91312279    -0.28900
C735        C  0.26544484  0.33393505  0.95237051     0.06700
C736        C  0.28464950  0.32439572  0.97775384    -0.27600
H737        H  0.26577346  0.30723625  0.84040408     0.11400
H738        H  0.29578243  0.27593345  0.81674355     0.12500
H739        H  0.32619830  0.30652602  0.01915268     0.11600
H740        H  0.35955444  0.27867283  0.99472310     0.10800
H741        H  0.37701423  0.25368195  0.94080450     0.16200
H742        H  0.33333958  0.24927029  0.82829139     0.12100
H743        H  0.25036160  0.33427857  0.89352610     0.15000
H744        H  0.28554144  0.33048094  0.00796725     0.14800
C745        C  0.68128084  0.00809241  0.78627957    -0.18100
C746        C  0.66347611  0.97228380  0.80070799    -0.20300
C747        C  0.67715835  0.95002397  0.79169614     0.20400
C748        C  0.70946522  0.96422435  0.76837091    -0.03200
C749        C  0.72708570  0.00018209  0.75330404    -0.06300
C750        C  0.71288926  0.02217876  0.76229701     0.20600
C751        C  0.75846569  0.01383513  0.72871086     0.18800
C752        C  0.77237471  0.99171449  0.72003634    -0.17800
C753        C  0.75524100  0.95630213  0.73534826    -0.20000
C754        C  0.72364572  0.94220535  0.75931839     0.20300
C755        C  0.70522360  0.90605411  0.77324196    -0.33000
C756        C  0.67198520  0.89111681  0.79493500     0.01000
C757        C  0.65844325  0.91347591  0.80453650    -0.24300
C758        C  0.73016301  0.05763117  0.74669228    -0.28900
C759        C  0.76111648  0.07129277  0.72159405     0.06700
C760        C  0.77510425  0.04915090  0.71284831    -0.27600
H761        H  0.67000489  0.02461271  0.79347220     0.11400
H762        H  0.63876857  0.96187532  0.81863871     0.12500
H763        H  0.79642871  0.00173967  0.70121835     0.11600
H764        H  0.76638110  0.93971048  0.72795470     0.10800
H765        H  0.71549113  0.88883300  0.76526470     0.16200
H766        H  0.63280561  0.90210164  0.82121248     0.12100
H767        H  0.71887282  0.07425370  0.75339170     0.15000
H768        H  0.79887407  0.05933143  0.69357356     0.14800
C769        C  0.67187156  0.63076296  0.91552036    -0.18100
C770        C  0.65293543  0.64832639  0.90798560    -0.20300
C771        C  0.67258772  0.68674764  0.90678306     0.20400
C772        C  0.71162757  0.70779520  0.91392749    -0.03200
C773        C  0.73060445  0.69002486  0.92251375    -0.06300
C774        C  0.71064551  0.65132153  0.92277707     0.20600
C775        C  0.76939862  0.71090374  0.93095481     0.18800
C776        C  0.78894457  0.74940542  0.93011379    -0.17800
C777        C  0.77033460  0.76703217  0.92049665    -0.20000
C778        C  0.73169982  0.74649495  0.91211855     0.20300
C779        C  0.71284707  0.76374979  0.90119104    -0.33000
C780        C  0.67399675  0.74268317  0.89350867     0.01000
C781        C  0.65396762  0.70437412  0.89754126    -0.24300
C782        C  0.72953893  0.63375410  0.93115491    -0.28900
C783        C  0.76780172  0.65420516  0.94101182     0.06700
C784        C  0.78767737  0.69284178  0.94068017    -0.27600
H785        H  0.65610623  0.60104465  0.91594403     0.11400
H786        H  0.62295459  0.63181843  0.90255445     0.12500
H787        H  0.81870830  0.76590373  0.93663210     0.11600
H788        H  0.78618157  0.79674266  0.91957893     0.10800
H789        H  0.72827982  0.79336404  0.89843773     0.16200
H790        H  0.62407081  0.68810911  0.89145379     0.12100
H791        H  0.71399040  0.60402266  0.93181265     0.15000
H792        H  0.81723607  0.70876789  0.94821381     0.14800
C793        C  0.35733575  0.57955077  0.84547620    -0.18100
C794        C  0.39130478  0.61218112  0.83675659    -0.20300
C795        C  0.42269330  0.62491935  0.86051037     0.20400
C796        C  0.42051266  0.60364945  0.89224285    -0.03200
C797        C  0.38614349  0.57058716  0.90103293    -0.06300
C798        C  0.35422777  0.55911014  0.87807595     0.20600
C799        C  0.38323308  0.55002190  0.93378397     0.18800
C800        C  0.41518614  0.56211010  0.95657850    -0.17800
C801        C  0.44920442  0.59501939  0.94800641    -0.20000
C802        C  0.45199598  0.61640852  0.91634685     0.20300
C803        C  0.48480430  0.65125327  0.90962646    -0.33000
C804        C  0.48595310  0.67357552  0.87961213     0.01000
C805        C  0.45536678  0.65958624  0.85439568    -0.24300
C806        C  0.31936437  0.52837776  0.88905076    -0.28900
C807        C  0.31576016  0.50867872  0.92261859     0.06700
C808        C  0.34808108  0.51879403  0.94409121    -0.27600
H809        H  0.33316098  0.57089165  0.82735767     0.11400
H810        H  0.39265592  0.62809441  0.81213429     0.12500
H811        H  0.41357721  0.54666116  0.98172936     0.11600
H812        H  0.47304976  0.60425367  0.96679011     0.10800
H813        H  0.50816471  0.66211474  0.92942530     0.16200
H814        H  0.45621257  0.67672401  0.83124378     0.12100
H815        H  0.29465065  0.52035615  0.87201205     0.15000
H816        H  0.34546878  0.50368457  0.96991998     0.14800
C817        C  0.77211857  0.98881986  0.22546370    -0.18100
C818        C  0.75240565  0.95249269  0.23879174    -0.20300
C819        C  0.71726017  0.93717875  0.25682381     0.20400
C820        C  0.70191698  0.95883267  0.26156603    -0.03200
C821        C  0.72210162  0.99575651  0.24852713    -0.06300
C822        C  0.75724708  0.01073330  0.23009250     0.20600
C823        C  0.70687446  0.01747905  0.25347825     0.18800
C824        C  0.67150178  0.00203044  0.27108992    -0.17800
C825        C  0.65130911  0.96537962  0.28346027    -0.20000
C826        C  0.66622841  0.94349041  0.27887162     0.20300
C827        C  0.64595419  0.90649627  0.29087827    -0.33000
C828        C  0.66114267  0.88465515  0.28653494     0.01000
C829        C  0.69703690  0.90049084  0.26967740    -0.24300
C830        C  0.77658821  0.04707708  0.21606725    -0.28900
C831        C  0.76160033  0.06900824  0.22075672     0.06700
C832        C  0.72690309  0.05399417  0.24010165    -0.27600
H833        H  0.79901478  0.99975169  0.21138822     0.11400
H834        H  0.76456954  0.93624971  0.23471313     0.12500
H835        H  0.65924806  0.01821775  0.27498024     0.11600
H836        H  0.62395073  0.95413591  0.29661280     0.10800
H837        H  0.61829602  0.89467747  0.30356210     0.16200
H838        H  0.70880769  0.88390192  0.26547760     0.12100
H839        H  0.80322406  0.05823456  0.20133700     0.15000
H840        H  0.71479262  0.07036538  0.24361175     0.14800
C841        C  0.76869464  0.76482396  0.40556355    -0.18100
C842        C  0.78756076  0.74825062  0.41820574    -0.20300
C843        C  0.76739357  0.71092720  0.42842701     0.20400
C844        C  0.72771753  0.69037140  0.42664811    -0.03200
C845        C  0.70863301  0.70739517  0.41500395    -0.06300
C846        C  0.72922327  0.74465254  0.40373486     0.20600
C847        C  0.66895645  0.68695945  0.41416714     0.18800
C848        C  0.64873507  0.64973027  0.42461085    -0.17800
C849        C  0.66760978  0.63268946  0.43519749    -0.20000
C850        C  0.70706352  0.65266789  0.43606452     0.20300
C851        C  0.72616983  0.63550101  0.44584127    -0.33000
C852        C  0.76565791  0.65568518  0.44767441     0.01000
C853        C  0.78610020  0.69362744  0.43982245    -0.24300
C854        C  0.70997233  0.76091218  0.39064309    -0.28900
C855        C  0.67035638  0.74074926  0.39014979     0.06700
C856        C  0.65015977  0.70391669  0.40243609    -0.27600
H857        H  0.78501807  0.79348425  0.39723989     0.11400
H858        H  0.81801101  0.76451385  0.41937725     0.12500
H859        H  0.61826137  0.63362597  0.42409980     0.11600
H860        H  0.65130982  0.60379762  0.44260879     0.10800
H861        H  0.71029113  0.60646157  0.45270975     0.16200
H862        H  0.81654040  0.70938062  0.44154925     0.12100
H863        H  0.72572911  0.78928460  0.38123533     0.15000
H864        H  0.61966680  0.68804485  0.40165559     0.14800
C865        C  0.39594409  0.59638462  0.33782940    -0.18100
C866        C  0.36307550  0.56286114  0.34686743    -0.20300
C867        C  0.35862626  0.54684601  0.38302731     0.20400
C868        C  0.38824186  0.56368979  0.40973728    -0.03200
C869        C  0.42154787  0.59753897  0.40053561    -0.06300
C870        C  0.42488503  0.61440254  0.36480276     0.20600
C871        C  0.45051403  0.61550472  0.42786806     0.18800
C872        C  0.44641531  0.59879802  0.46361053    -0.17800
C873        C  0.41332893  0.56528038  0.47277848    -0.20000
C874        C  0.38374889  0.54778106  0.44634101     0.20300
C875        C  0.34906553  0.51585618  0.45645527    -0.33000
C876        C  0.31890300  0.50046347  0.43057262     0.01000
C877        C  0.32429928  0.51540058  0.39362708    -0.24300
C878        C  0.45594369  0.64994925  0.35759915    -0.28900
C879        C  0.48388973  0.66870126  0.38543582     0.06700
C880        C  0.48191595  0.65080147  0.41982484    -0.27600
H881        H  0.39819723  0.60881200  0.31019150     0.11400
H882        H  0.34060466  0.55005613  0.32601173     0.12500
H883        H  0.46834971  0.61221653  0.48494808     0.11600
H884        H  0.41047216  0.55356026  0.50096317     0.10800
H885        H  0.34474998  0.50454301  0.48508667     0.16200
H886        H  0.30095479  0.50342295  0.37368611     0.12100
H887        H  0.45748731  0.66383092  0.33114048     0.15000
H888        H  0.50327640  0.66550141  0.44150247     0.14800
C889        C  0.52677328  0.77510464  0.62358400    -0.18100
C890        C  0.52303380  0.77563118  0.58385726    -0.20300
C891        C  0.54941853  0.77574099  0.55935678     0.20400
C892        C  0.57997132  0.77543545  0.57507330    -0.03200
C893        C  0.58376545  0.77492231  0.61526479    -0.06300
C894        C  0.55699859  0.77473167  0.63955563     0.20600
C895        C  0.61439682  0.77481642  0.63109935     0.18800
C896        C  0.64080568  0.77497646  0.60651214    -0.17800
C897        C  0.63700750  0.77540656  0.56670098    -0.20000
C898        C  0.60675458  0.77573125  0.55068121     0.20300
C899        C  0.60278875  0.77629878  0.51076713    -0.33000
C900        C  0.57220744  0.77632962  0.49481428     0.01000
C901        C  0.54570181  0.77610052  0.51945922    -0.24300
C902        C  0.56102621  0.77454478  0.67939780    -0.28900
C903        C  0.59168627  0.77487767  0.69569941     0.06700
C904        C  0.61822654  0.77487916  0.67116529    -0.27600
H905        H  0.50602631  0.77507481  0.64185153     0.11400
H906        H  0.49945462  0.77594293  0.57228741     0.12500
H907        H  0.66449658  0.77486775  0.61807810     0.11600
H908        H  0.65781473  0.77556417  0.54842129     0.10800
H909        H  0.62333550  0.77634201  0.49214030     0.16200
H910        H  0.52216064  0.77633581  0.50760925     0.12100
H911        H  0.54044896  0.77476552  0.69772905     0.15000
H912        H  0.64199999  0.77518308  0.68318578     0.14800
C913        C  0.51327789  0.76274596  0.08137470    -0.18100
C914        C  0.51503038  0.76103176  0.12122958    -0.20300
C915        C  0.54533157  0.76180766  0.13861531     0.20400
C916        C  0.57381968  0.76372141  0.11558796    -0.03200
C917        C  0.57213627  0.76560801  0.07541257    -0.06300
C918        C  0.54187959  0.76542454  0.05828919     0.20600
C919        C  0.60104688  0.76828811  0.05245859     0.18800
C920        C  0.63088685  0.76820752  0.06980281    -0.17800
C921        C  0.63255868  0.76633844  0.10961199    -0.20000
C922        C  0.60438765  0.76446676  0.13269328     0.20300
C923        C  0.60672768  0.76411524  0.17259694    -0.33000
C924        C  0.57904521  0.76325474  0.19585649     0.01000
C925        C  0.54806879  0.76149995  0.17859576    -0.24300
C926        C  0.54102647  0.76846512  0.01842905    -0.28900
C927        C  0.57018945  0.77200905  0.99533631     0.06700
C928        C  0.59990860  0.77150398  0.01262248    -0.27600
H929        H  0.48977014  0.76243028  0.06862032     0.11400
H930        H  0.49288441  0.75948348  0.13847023     0.12500
H931        H  0.65317857  0.77002762  0.05259530     0.11600
H932        H  0.65614411  0.76680260  0.12237910     0.10800
H933        H  0.63067942  0.76535085  0.18550016     0.16200
H934        H  0.52661120  0.76091344  0.19619560     0.12100
H935        H  0.51781955  0.76857165  0.00546391     0.15000
H936        H  0.62225513  0.77374485  0.99511783     0.14800
C937        C  0.00613810  0.64527707  0.55041964    -0.18100
C938        C  0.04211782  0.66314416  0.56642297    -0.20300
C939        C  0.05820553  0.69810004  0.58270007     0.20400
C940        C  0.03790225  0.71532152  0.58265478    -0.03200
C941        C  0.00151585  0.69728221  0.56634030    -0.06300
C942        C  0.98557953  0.66203834  0.55038082     0.20600
C943        C  0.98093761  0.71426764  0.56646329     0.18800
C944        C  0.99713588  0.74927372  0.58271000    -0.17800
C945        C  0.03325016  0.76720877  0.59872873    -0.20000
C946        C  0.05393091  0.75051147  0.59886198     0.20300
C947        C  0.09052201  0.76857189  0.61430433    -0.33000
C948        C  0.11135132  0.75185892  0.61382146     0.01000
C949        C  0.09447982  0.71627691  0.59842820    -0.24300
C950        C  0.94894987  0.64363757  0.53568008    -0.28900
C951        C  0.92754076  0.65966701  0.53689121     0.06700
C952        C  0.94416551  0.69547983  0.55146516    -0.27600
H953        H  0.99426733  0.61818754  0.53830541     0.11400
H954        H  0.05737195  0.64957236  0.56609964     0.12500
H955        H  0.98177603  0.76273430  0.58323064     0.11600
H956        H  0.04502075  0.79420113  0.61103414     0.10800
H957        H  0.10305632  0.79594371  0.62589990     0.16200
H958        H  0.11004515  0.70301735  0.59751681     0.12100
H959        H  0.93658391  0.61612404  0.52448210     0.15000
H960        H  0.92788612  0.70797994  0.55292344     0.14800
C961        C  0.26263731  0.02726190  0.73553901    -0.18100
C962        C  0.24471420  0.99094744  0.72244472    -0.20300
C963        C  0.26199870  0.97108916  0.72640025     0.20400
C964        C  0.29781462  0.98818721  0.74356266    -0.03200
C965        C  0.31592012  0.02481185  0.75664086    -0.06300
C966        C  0.29827894  0.04452986  0.75277430     0.20600
C967        C  0.35194829  0.04180019  0.77316646     0.18800
C968        C  0.36973739  0.02243699  0.77626733    -0.17800
C969        C  0.35181842  0.98626618  0.76350413    -0.20000
C970        C  0.31578970  0.96882117  0.74741897     0.20300
C971        C  0.29763395  0.93240069  0.73497745    -0.33000
C972        C  0.26189607  0.91491950  0.71795614     0.01000
C973        C  0.24434051  0.93459714  0.71339111    -0.24300
C974        C  0.31707257  0.08134114  0.76531100    -0.28900
C975        C  0.35345563  0.09860363  0.78119353     0.06700
C976        C  0.37014872  0.07818100  0.78552837    -0.27600
H977        H  0.24867478  0.04190817  0.73199523     0.11400
H978        H  0.21729876  0.97839132  0.70919266     0.12500
H979        H  0.39761713  0.03532533  0.78851413     0.11600
H980        H  0.36616356  0.97190783  0.76624602     0.10800
H981        H  0.31176840  0.91782944  0.73787677     0.16200
H982        H  0.21695361  0.92148626  0.69994496     0.12100
H983        H  0.30411888  0.09689066  0.76129241     0.15000
H984        H  0.39807208  0.09100576  0.79771438     0.14800
C985        C  0.42555411  0.84482147  0.81593230    -0.18100
C986        C  0.39458631  0.84385676  0.80038960    -0.20300
C987        C  0.38058895  0.82814550  0.76434465     0.20400
C988        C  0.39898834  0.81464969  0.74303625    -0.03200
C989        C  0.43086900  0.81642854  0.75837546    -0.06300
C990        C  0.44344826  0.83063480  0.79544409     0.20600
C991        C  0.44895007  0.80234840  0.73746578     0.18800
C992        C  0.43548110  0.78745975  0.70098858    -0.17800
C993        C  0.40327294  0.78479486  0.68624193    -0.20000
C994        C  0.38437292  0.79763292  0.70736638     0.20300
C995        C  0.35009215  0.79203062  0.69452602    -0.33000
C996        C  0.33093849  0.80430193  0.71632994     0.01000
C997        C  0.34724795  0.82371726  0.75035839    -0.24300
C998        C  0.47246930  0.82879071  0.81216751    -0.28900
C999        C  0.48956201  0.81338539  0.79225720     0.06700
C1000       C  0.47876262  0.80158503  0.75428422    -0.27600
H1001       H  0.43501195  0.85596157  0.84436916     0.11400
H1002       H  0.38078410  0.85427992  0.81715410     0.12500
H1003       H  0.44905508  0.77666823  0.68442813     0.11600
H1004       H  0.39266164  0.77194473  0.65864871     0.10800
H1005       H  0.33743082  0.77672365  0.66845810     0.16200
H1006       H  0.33221316  0.83248473  0.76767286     0.12100
H1007       H  0.48085239  0.83809752  0.84135591     0.15000
H1008       H  0.49163579  0.78939162  0.73892375     0.14800
C1009       C  0.20929550  0.62994409  0.52720949    -0.18100
C1010       C  0.21104358  0.60131790  0.51140351    -0.20300
C1011       C  0.20207107  0.57058750  0.53363166     0.20400
C1012       C  0.19071841  0.56829857  0.57200365    -0.03200
C1013       C  0.18913525  0.59729892  0.58802338    -0.06300
C1014       C  0.19870369  0.62838623  0.56556144     0.20600
C1015       C  0.17899869  0.59563417  0.62674793     0.18800
C1016       C  0.16960159  0.56467221  0.64885425    -0.17800
C1017       C  0.17084959  0.53576740  0.63286581    -0.20000
C1018       C  0.18168579  0.53742126  0.59454754     0.20300
C1019       C  0.18422298  0.50909649  0.57850977    -0.33000
C1020       C  0.19614862  0.51159080  0.54036514     0.01000
C1021       C  0.20475600  0.54236507  0.51818094    -0.24300
C1022       C  0.19901947  0.65799952  0.58222433    -0.28900
C1023       C  0.19081846  0.65728278  0.62129686     0.06700
C1024       C  0.17982936  0.62555385  0.64306438    -0.27600
H1025       H  0.21682078  0.65358503  0.50959342     0.11400
H1026       H  0.21977595  0.60337839  0.48183982     0.12500
H1027       H  0.16176147  0.56302752  0.67868149     0.11600
H1028       H  0.16382746  0.51234648  0.65061879     0.10800
H1029       H  0.17762071  0.48555406  0.59585856     0.16200
H1030       H  0.21373934  0.54450890  0.48868450     0.12100
H1031       H  0.20784430  0.68243078  0.56538962     0.15000
H1032       H  0.17327495  0.62470127  0.67321456     0.14800
C1033       C  0.99904514  0.64302280  0.07334517    -0.18100
C1034       C  0.03471106  0.66220610  0.08988508    -0.20300
C1035       C  0.05321530  0.70001709  0.09653376     0.20400
C1036       C  0.03551151  0.71870211  0.08682767    -0.03200
C1037       C  0.99925785  0.69921118  0.07028396    -0.06300
C1038       C  0.98116832  0.66127694  0.06344455     0.20600
C1039       C  0.98108903  0.71754583  0.06078818     0.18800
C1040       C  0.99969760  0.75541696  0.06770307    -0.17800
C1041       C  0.03589181  0.77486205  0.08369390    -0.20000
C1042       C  0.05413514  0.75679730  0.09332788     0.20300
C1043       C  0.09095496  0.77615919  0.10835354    -0.33000
C1044       C  0.10928142  0.75776735  0.11678469     0.01000
C1045       C  0.08956231  0.71949450  0.11174029    -0.24300
C1046       C  0.94511184  0.64187528  0.04766170    -0.28900
C1047       C  0.92590066  0.65934064  0.03933943     0.06700
C1048       C  0.94441199  0.69748154  0.04541453    -0.27600
H1049       H  0.98535711  0.61382286  0.06843118     0.11400
H1050       H  0.04798227  0.64749956  0.09717483     0.12500
H1051       H  0.98626883  0.77003421  0.06071774     0.11600
H1052       H  0.04966284  0.80408727  0.08843386     0.10800
H1053       H  0.10579281  0.80562427  0.11201354     0.16200
H1054       H  0.10305508  0.70483719  0.11834722     0.12100
H1055       H  0.93144838  0.61259563  0.04324488     0.15000
H1056       H  0.92994115  0.71128721  0.03936970     0.14800
C1057       C  0.25198508  0.99841112  0.22088435    -0.18100
C1058       C  0.27142417  0.03470400  0.23375170    -0.20300
C1059       C  0.30510921  0.04928039  0.25419697     0.20400
C1060       C  0.31896470  0.02686820  0.26255626    -0.03200
C1061       C  0.29889439  0.98998496  0.25028075    -0.06300
C1062       C  0.26561183  0.97590089  0.22870985     0.20600
C1063       C  0.31276029  0.96758800  0.25855626     0.18800
C1064       C  0.34640829  0.98213437  0.27913244    -0.17800
C1065       C  0.36674373  0.01891859  0.29052108    -0.20000
C1066       C  0.35343237  0.04160150  0.28210454     0.20300
C1067       C  0.37439969  0.07895287  0.29192704    -0.33000
C1068       C  0.36085065  0.10148928  0.28327896     0.01000
C1069       C  0.32577381  0.08620580  0.26526298    -0.24300
C1070       C  0.24718448  0.93996238  0.21437657    -0.28900
C1071       C  0.26126857  0.91770179  0.22186896     0.06700
C1072       C  0.29350195  0.93145945  0.24492341    -0.27600
H1073       H  0.22648305  0.98806667  0.20443045     0.11400
H1074       H  0.26051089  0.05162843  0.22699577     0.12500
H1075       H  0.35746009  0.96527995  0.28564806     0.11600
H1076       H  0.39307896  0.02972094  0.30557530     0.10800
H1077       H  0.40142065  0.09060190  0.30588056     0.16200
H1078       H  0.31541750  0.10354004  0.25810899     0.12100
H1079       H  0.22227692  0.92955276  0.19687994     0.15000
H1080       H  0.30470760  0.91460975  0.25080388     0.14800
C1081       C  0.38883820  0.77330519  0.18928820    -0.18100
C1082       C  0.41965588  0.77363256  0.20441063    -0.20300
C1083       C  0.43570166  0.79126798  0.23925857     0.20400
C1084       C  0.42180589  0.81046077  0.25797010    -0.03200
C1085       C  0.39103429  0.81060469  0.24237607    -0.06300
C1086       C  0.37371483  0.79085614  0.20857772     0.20600
C1087       C  0.37621224  0.82861799  0.26182871     0.18800
C1088       C  0.39342368  0.84775433  0.29570782    -0.17800
C1089       C  0.42362046  0.84726883  0.31136312    -0.20000
C1090       C  0.43731856  0.82785799  0.29328436     0.20300
C1091       C  0.46502509  0.82413775  0.31070505    -0.33000
C1092       C  0.47802226  0.80391677  0.29292641     0.01000
C1093       C  0.46416696  0.78863229  0.25657796    -0.24300
C1094       C  0.34019580  0.78695452  0.19608969    -0.28900
C1095       C  0.32389853  0.80276198  0.21674978     0.06700
C1096       C  0.34302738  0.82508442  0.24849241    -0.27600
H1097       H  0.37608721  0.75832779  0.16309959     0.11400
H1098       H  0.43011661  0.75900384  0.18949898     0.12500
H1099       H  0.38262587  0.86195288  0.31088954     0.11600
H1100       H  0.43554200  0.86118903  0.33823542     0.10800
H1101       H  0.47587895  0.83621492  0.33856862     0.16200
H1102       H  0.47396246  0.77286800  0.24285639     0.12100
H1103       H  0.32552289  0.76976891  0.17158970     0.15000
H1104       H  0.33033200  0.83694581  0.26478661     0.14800
C1105       C  0.20241133  0.60347908  0.00831682    -0.18100
C1106       C  0.20063230  0.63195963  0.02468890    -0.20300
C1107       C  0.19216190  0.63100302  0.06369956     0.20400
C1108       C  0.18473507  0.60062143  0.08620477    -0.03200
C1109       C  0.18694254  0.57208264  0.06978580    -0.06300
C1110       C  0.19612308  0.57371383  0.03074034     0.20600
C1111       C  0.18081731  0.54238197  0.09266016     0.18800
C1112       C  0.17164639  0.54105166  0.13148081    -0.17800
C1113       C  0.16921481  0.56916922  0.14767533    -0.20000
C1114       C  0.17615501  0.59922058  0.12539102     0.20300
C1115       C  0.17610139  0.62853435  0.14203403    -0.33000
C1116       C  0.18533200  0.65983349  0.12038526     0.01000
C1117       C  0.19232837  0.66042359  0.08090885    -0.24300
C1118       C  0.19965553  0.54598371  0.01498562    -0.28900
C1119       C  0.19455026  0.51671335  0.03777447     0.06700
C1120       C  0.18462357  0.51489753  0.07652588    -0.27600
H1121       H  0.20937584  0.60506270  0.97822161     0.11400
H1122       H  0.20637530  0.65497809  0.00693495     0.12500
H1123       H  0.16678629  0.51846792  0.14944689     0.11600
H1124       H  0.16259491  0.56774915  0.17785291     0.10800
H1125       H  0.17042534  0.62762109  0.17242610     0.16200
H1126       H  0.19975267  0.68446638  0.06402612     0.12100
H1127       H  0.20691669  0.54751912  0.98497142     0.15000
H1128       H  0.18053736  0.49249125  0.09431622     0.14800
C1129       C  0.24062017  0.74524715  0.94982732    -0.18100
C1130       C  0.23903437  0.74047595  0.91010879    -0.20300
C1131       C  0.23287434  0.76259712  0.88589378     0.20400
C1132       C  0.22868510  0.79005407  0.90184829    -0.03200
C1133       C  0.23008217  0.79473670  0.94195334    -0.06300
C1134       C  0.23584644  0.77207126  0.96604663     0.20600
C1135       C  0.22527064  0.82180241  0.95791547     0.18800
C1136       C  0.21997866  0.84447277  0.93365253    -0.17800
C1137       C  0.21886572  0.84001166  0.89393793    -0.20000
C1138       C  0.22285068  0.81269753  0.87778528     0.20300
C1139       C  0.22106031  0.80767012  0.83801661    -0.33000
C1140       C  0.22501631  0.78026310  0.82178322     0.01000
C1141       C  0.23088218  0.75779007  0.84604383    -0.24300
C1142       C  0.23604138  0.77614190  0.00592638    -0.28900
C1143       C  0.23015098  0.80235171  0.02222784     0.06700
C1144       C  0.22525771  0.82538185  0.99784307    -0.27600
H1145       H  0.24518853  0.72767774  0.96789878     0.11400
H1146       H  0.24249676  0.71937529  0.89833620     0.12500
H1147       H  0.21644414  0.86552877  0.94541321     0.11600
H1148       H  0.21459423  0.85776978  0.87585052     0.10800
H1149       H  0.21669957  0.82524962  0.81970862     0.16200
H1150       H  0.23402445  0.73658208  0.83396324     0.12100
H1151       H  0.23994360  0.75826987  0.02425837     0.15000
H1152       H  0.22081585  0.84576808  0.00988799     0.14800
C1153       C  0.23565175  0.74119721  0.40687153    -0.18100
C1154       C  0.23782700  0.74474239  0.44665482    -0.20300
C1155       C  0.23515211  0.77220856  0.46443043     0.20400
C1156       C  0.23076460  0.79670058  0.44184486    -0.03200
C1157       C  0.22824361  0.79292259  0.40165668    -0.06300
C1158       C  0.23047305  0.76487769  0.38424368     0.20600
C1159       C  0.22298632  0.81681800  0.37900152     0.18800
C1160       C  0.22111084  0.84479189  0.39679441    -0.17800
C1161       C  0.22376273  0.84863769  0.43666035    -0.20000
C1162       C  0.22823008  0.82451078  0.45942657     0.20300
C1163       C  0.22938243  0.82718094  0.49947728    -0.33000
C1164       C  0.23261206  0.80212917  0.52232299     0.01000
C1165       C  0.23604168  0.77507251  0.50441762    -0.24300
C1166       C  0.22703054  0.76059776  0.34453158    -0.28900
C1167       C  0.22101789  0.78370692  0.32160944     0.06700
C1168       C  0.21936985  0.81205773  0.33907670    -0.27600
H1169       H  0.23754897  0.71960282  0.39381555     0.11400
H1170       H  0.24127587  0.72577912  0.46355354     0.12500
H1171       H  0.21727151  0.86350663  0.37991056     0.11600
H1172       H  0.22186081  0.87022455  0.44972876     0.10800
H1173       H  0.22681657  0.84827512  0.51282615     0.16200
H1174       H  0.23851482  0.75562715  0.52158172     0.12100
H1175       H  0.22878994  0.73889336  0.33152828     0.15000
H1176       H  0.21520535  0.83030856  0.32170716     0.14800
loop_ 
_geom_bond_atom_site_label_1 
_geom_bond_atom_site_label_2 
_geom_bond_distance 
_geom_bond_site_symmetry_2 
_ccdc_geom_bond_type 
O1           Ni7   1.906       .  S
O1           C22   1.267       .  A
O2          Ni25   1.890       .  S
O2           C11   1.265       .  A
O3           Ni7   1.919       .  S
O3          Ni25   1.920       .  S
O3          Ni19   1.941       .  S
O3           H26   0.966       .  S
C4           O21   1.274       .  A
C4           O13   1.280       .  A
C4         C1143   1.489       .  S
O5          Ni24   1.952       .  S
O5           C11   1.278       .  A
O6          Ni24   1.922       .  S
O6            C8   1.272       .  A
Ni7          O10   1.921       .  S
Ni7          O12   1.900       .  S
C8           O18   1.274       .  A
C8         C1044   1.490       .  S
O9          Ni25   1.909       .  S
O9           C15   1.265       .  A
O10          C15   1.268       .  A
C11        C1071   1.484       .  S
O12          C14   1.271       .  A
O13         Ni24   1.944       .  S
C14          O20   1.281       .  A
C14        C1095   1.479       .  S
C15        C1167   1.484       .  S
H16          O17   0.966       .  S
O17         Ni25   1.896       .  S
O17         Ni19   1.896       .  S
O17         Ni24   1.921       .  S
O18         Ni19   1.929       .  S
Ni19         O23   1.919       .  S
Ni19         O21   1.908       .  S
O20         Ni25   1.958       .  S
C22          O23   1.269       .  A
C22        C1116   1.485       .  S
O27         Ni33   1.905       .  S
O27          C48   1.267       .  A
O28         Ni51   1.905       .  S
O28          C37   1.269       .  A
O29         Ni33   1.923       .  S
O29         Ni51   1.919       .  S
O29         Ni45   1.943       .  S
O29          H52   0.966       .  S
C30          O47   1.278       .  A
C30          O39   1.277       .  A
C30        C1164   1.485       .  S
O31         Ni50   1.940       .  S
O31          C37   1.273       .  A
O32         Ni50   1.922       .  S
O32          C34   1.272       .  A
Ni33         O36   1.930       .  S
Ni33         O38   1.903       .  S
C34          O44   1.274       .  A
C34         C948   1.495       .  S
O35         Ni51   1.905       .  S
O35          C41   1.266       .  A
O36          C41   1.269       .  A
C37         C972   1.486       .  S
O38          C40   1.270       .  A
O39         Ni50   1.928       .  S
C40          O46   1.283       .  A
C40         C996   1.482       .  S
C41        C1140   1.485       .  S
H42          O43   0.966       .  S
O43         Ni51   1.895       .  S
O43         Ni45   1.899       .  S
O43         Ni50   1.921       .  S
O44         Ni45   1.935       .  S
Ni45         O49   1.919       .  S
Ni45         O47   1.916       .  S
O46         Ni51   1.965       .  S
C48          O49   1.271       .  A
C48        C1023   1.480       .  S
O53         Ni59   1.930       .  S
O53          C74   1.271       .  A
O54         Ni77   1.909       .  S
O54          C63   1.268       .  A
O55         Ni59   1.923       .  S
O55         Ni77   1.926       .  S
O55         Ni71   1.937       .  S
O55          H78   0.966       .  S
C56          O73   1.274       .  A
C56          O65   1.277       .  A
C56         C924   1.480       .  S
O57         Ni76   1.946       .  S
O57          C63   1.275       .  A
O58         Ni76   1.922       .  S
O58          C60   1.274       .  A
Ni59         O62   1.941       .  S
Ni59         O64   1.907       .  S
C60          O70   1.275       .  A
C60         C828   1.496       .  S
O61         Ni77   1.903       .  S
O61          C67   1.266       .  A
O62          C67   1.274       .  A
C63         C855   1.488       .  S
O64          C66   1.272       .  A
O65         Ni76   1.926       .  S
C66          O72   1.278       .  A
C66         C879   1.475       .  S
C67         C900   1.488       .  S
H68          O69   0.966       .  S
O69         Ni77   1.893       .  S
O69         Ni71   1.901       .  S
O69         Ni76   1.919       .  S
O70         Ni71   1.940       .  S
Ni71         O75   1.911       .  S
Ni71         O73   1.907       .  S
O72         Ni77   1.954       .  S
C74          O75   1.267       .  A
C74        C1092   1.483       .  S
O79         Ni85   1.915       .  S
O79         C100   1.269       .  A
O80        Ni103   1.902       .  S
O80          C89   1.268       .  A
O81         Ni85   1.919       .  S
O81        Ni103   1.921       .  S
O81         Ni97   1.941       .  S
O81         H104   0.966       .  S
C82          O99   1.275       .  A
C82          O91   1.281       .  A
C82         C903   1.493       .  S
O83        Ni102   1.950       .  S
O83          C89   1.275       .  A
O84        Ni102   1.916       .  S
O84          C86   1.271       .  A
Ni85         O88   1.925       .  S
Ni85         O90   1.898       .  S
C86          O96   1.272       .  A
C86         C756   1.482       .  S
O87        Ni103   1.906       .  S
O87          C93   1.267       .  A
O88          C93   1.269       .  A
C89         C780   1.478       .  S
O90          C92   1.272       .  A
O91        Ni102   1.948       .  S
C92          O98   1.281       .  A
C92         C804   1.479       .  S
C93         C927   1.482       .  S
H94          O95   0.966       .  S
O95        Ni103   1.899       .  S
O95         Ni97   1.896       .  S
O95        Ni102   1.922       .  S
O96         Ni97   1.928       .  S
Ni97        O101   1.911       .  S
Ni97         O99   1.909       .  S
O98        Ni103   1.961       .  S
C100        O101   1.267       .  A
C100        C999   1.480       .  S
O105       Ni111   1.924       .  S
O105        C126   1.272   1_556  A
O106       Ni129   1.906       .  S
O106        C115   1.272       .  A
O107       Ni111   1.900       .  S
O107       Ni129   1.899       .  S
O107       Ni123   1.922   1_556  S
O107        H130   0.966       .  S
C108        O125   1.280       .  A
C108        O117   1.279       .  A
C108        C684   1.486       .  S
O109       Ni128   1.943   1_556  S
O109        C115   1.279       .  A
O110       Ni128   1.939       .  S
O110        C112   1.277       .  A
Ni111       O114   1.916       .  S
Ni111       O116   1.911       .  S
C112        O122   1.274       .  A
C112        C708   1.504       .  S
O113       Ni129   1.932       .  S
O113        C119   1.280       .  A
O114        C119   1.275       .  A
C115        C735   1.480       .  S
O116        C118   1.271       .  A
O117       Ni128   1.929       .  S
C118        O124   1.276       .  A
C118        C807   1.483       .  S
C119        C663   1.486       .  S
H120        O121   0.967       .  S
O121       Ni129   1.912   1_554  S
O121       Ni123   1.900       .  S
O121       Ni128   1.906       .  S
O122       Ni123   1.931       .  S
Ni123       O127   1.918       .  S
Ni123       O125   1.923       .  S
O124       Ni129   1.941       .  S
C126        O127   1.272       .  A
C126       C1119   1.485       .  S
O131       Ni137   1.921       .  S
O131        C152   1.270       .  A
O132       Ni155   1.903       .  S
O132        C141   1.273       .  A
O133       Ni137   1.897       .  S
O133       Ni155   1.900       .  S
O133       Ni149   1.916       .  S
O133        H156   0.966       .  S
C134        O151   1.275       .  A
C134        O143   1.279       .  A
C134        C660   1.479       .  S
O135       Ni154   1.938       .  S
O135        C141   1.278       .  A
O136       Ni154   1.928       .  S
O136        C138   1.274       .  A
Ni137       O140   1.912       .  S
Ni137       O142   1.902       .  S
C138        O148   1.274       .  A
C138        C615   1.495       .  S
O139       Ni155   1.940       .  S
O139        C145   1.282       .  A
O140        C145   1.276       .  A
C141        C636   1.475       .  S
O142        C144   1.269       .  A
O143       Ni154   1.931       .  S
C144        O150   1.275       .  A
C144        C876   1.474       .  S
C145        C687   1.490       .  S
H146        O147   0.966       .  S
O147       Ni155   1.913       .  S
O147       Ni149   1.898       .  S
O147       Ni154   1.905       .  S
O148       Ni149   1.926       .  S
Ni149       O153   1.915       .  S
Ni149       O151   1.909       .  S
O150       Ni155   1.940       .  S
C152        O153   1.269       .  A
C152       C1020   1.481       .  S
O157       Ni163   1.916       .  S
O157        C178   1.268       .  A
O158       Ni181   1.908       .  S
O158        C167   1.269       .  A
O159       Ni163   1.915       .  S
O159       Ni181   1.923       .  S
O159       Ni175   1.941       .  S
O159        H182   0.966       .  S
C160        O177   1.275       .  A
C160        O169   1.274       .  A
C160        C591   1.484       .  S
O161       Ni180   1.929       .  S
O161        C167   1.272       .  A
O162       Ni180   1.908       .  S
O162        C164   1.270       .  A
Ni163       O166   1.922       .  S
Ni163       O168   1.898       .  S
C164        O174   1.273       .  A
C164       C1068   1.478       .  S
O165       Ni181   1.909       .  S
O165        C171   1.265       .  A
O166        C171   1.269       .  A
C167        C639   1.475       .  S
O168        C170   1.272       .  A
O169       Ni180   1.923       .  S
C170        O176   1.284       .  A
C170        C540   1.473       .  S
C171        C564   1.481       .  S
H172        O173   0.967       .  S
O173       Ni181   1.902       .  S
O173       Ni175   1.904       .  S
O173       Ni180   1.916       .  S
O174       Ni175   1.930       .  S
Ni175       O179   1.912       .  S
Ni175       O177   1.917       .  S
O176       Ni181   1.963       .  S
C178        O179   1.268       .  A
C178        C519   1.481       .  S
O183       Ni189   1.914       .  S
O183        C204   1.268       .  A
O184       Ni207   1.911       .  S
O184        C193   1.270       .  A
O185       Ni189   1.920       .  S
O185       Ni207   1.921       .  S
O185       Ni201   1.939       .  S
O185        H208   0.966       .  S
C186        O203   1.275       .  A
C186        O195   1.277       .  A
C186        C567   1.480       .  S
O187       Ni206   1.938       .  S
O187        C193   1.276       .  A
O188       Ni206   1.930       .  S
O188        C190   1.273       .  A
Ni189       O192   1.926       .  S
Ni189       O194   1.904       .  S
C190        O200   1.271       .  A
C190        C975   1.490       .  S
O191       Ni207   1.903       .  S
O191        C197   1.266       .  A
O192        C197   1.269       .  A
C193        C732   1.484       .  S
O194        C196   1.273       .  A
O195       Ni206   1.930       .  S
C196        O202   1.284       .  A
C196        C492   1.482       .  S
C197        C588   1.481       .  S
H198        O199   0.967       .  S
O199       Ni207   1.897       .  S
O199       Ni201   1.893       .  S
O199       Ni206   1.922       .  S
O200       Ni201   1.918       .  S
Ni201       O205   1.912       .  S
Ni201       O203   1.905       .  S
O202       Ni207   1.964       .  S
C204        O205   1.267       .  A
C204        C468   1.478       .  S
O209       Ni215   1.908       .  S
O209        C230   1.267       .  A
O210       Ni233   1.907       .  S
O210        C219   1.269       .  A
O211       Ni215   1.921       .  S
O211       Ni233   1.919       .  S
O211       Ni227   1.940       .  S
O211        H234   0.966       .  S
C212        O229   1.274       .  A
C212        O221   1.281       .  A
C212        C420   1.488       .  S
O213       Ni232   1.960       .  S
O213        C219   1.281       .  A
O214       Ni232   1.932       .  S
O214        C216   1.276       .  A
Ni215       O218   1.928       .  S
Ni215       O220   1.901       .  S
C216        O226   1.276       .  A
C216        C711   1.501       .  S
O217       Ni233   1.908       .  S
O217        C223   1.266       .  A
O218        C223   1.268       .  A
C219        C831   1.496       .  S
O220        C222   1.270       .  A
O221       Ni232   1.947       .  S
C222        O228   1.283       .  A
C222        C516   1.477       .  S
C223        C444   1.483       .  S
H224        O225   0.966       .  S
O225       Ni233   1.893       .  S
O225       Ni227   1.895       .  S
O225       Ni232   1.918       .  S
O226       Ni227   1.937       .  S
Ni227       O231   1.915       .  S
Ni227       O229   1.905       .  S
O228       Ni233   1.959       .  S
C230        O231   1.270       .  A
C230        C396   1.483       .  S
O235       Ni241   1.909       .  S
O235        C256   1.268       .  A
O236       Ni259   1.899       .  S
O236        C245   1.265       .  A
O237       Ni241   1.924       .  S
O237       Ni259   1.914       .  S
O237       Ni253   1.929       .  S
O237        H260   0.966       .  S
C238        O255   1.274       .  A
C238        O247   1.276       .  A
C238        C447   1.485       .  S
O239       Ni258   1.943       .  S
O239        C245   1.275       .  A
O240       Ni258   1.919       .  S
O240        C242   1.272       .  A
Ni241       O244   1.931       .  S
Ni241       O246   1.906       .  S
C242        O252   1.275       .  A
C242        C612   1.493       .  S
O243       Ni259   1.904       .  S
O243        C249   1.268       .  A
O244        C249   1.271       .  A
C245        C759   1.486       .  S
O246        C248   1.269       .  A
O247       Ni258   1.929       .  S
C248        O254   1.277       .  A
C248        C471   1.477       .  S
C249        C423   1.485       .  S
H250        O251   0.966       .  S
O251       Ni259   1.901       .  S
O251       Ni253   1.905       .  S
O251       Ni258   1.924       .  S
O252       Ni253   1.931       .  S
Ni253       O257   1.909       .  S
Ni253       O255   1.913       .  S
O254       Ni259   1.948       .  S
C256        O257   1.268       .  A
C256        C375   1.475       .  S
O261       Ni267   1.920       .  S
O261        C282   1.271   1_556  A
O262       Ni285   1.905       .  S
O262        C271   1.272       .  A
O263       Ni267   1.886       .  S
O263       Ni285   1.895       .  S
O263       Ni279   1.914   1_556  S
O263        H286   0.966       .  S
C264        O281   1.280       .  A
C264        O273   1.281       .  A
C264        C348   1.475       .  S
O265       Ni284   1.944   1_556  S
O265        C271   1.277       .  A
O266       Ni284   1.924       .  S
O266        C268   1.272       .  A
Ni267       O270   1.912       .  S
Ni267       O272   1.903       .  S
C268        O278   1.271       .  A
C268       C1047   1.489       .  S
O269       Ni285   1.932       .  S
O269        C275   1.280       .  A
O270        C275   1.276       .  A
C271        C783   1.481       .  S
O272        C274   1.270       .  A
O273       Ni284   1.935       .  S
C274        O280   1.279       .  A
C274        C495   1.485       .  S
C275        C324   1.482       .  S
H276        O277   0.966       .  S
O277       Ni285   1.906   1_554  S
O277       Ni279   1.898       .  S
O277       Ni284   1.905       .  S
O278       Ni279   1.917       .  S
Ni279       O283   1.921       .  S
Ni279       O281   1.913       .  S
O280       Ni285   1.949       .  S
C282        O283   1.272       .  A
C282        C399   1.484       .  S
O287       Ni293   1.925       .  S
O287        C308   1.271       .  A
O288       Ni311   1.916       .  S
O288        C297   1.274       .  A
O289       Ni293   1.894       .  S
O289       Ni311   1.903       .  S
O289       Ni305   1.912       .  S
O289        H312   0.966       .  S
C290        O307   1.276       .  A
C290        O299   1.281       .  A
C290        C327   1.476       .  S
O291       Ni310   1.945       .  S
O291        C297   1.277       .  A
O292       Ni310   1.924       .  S
O292        C294   1.273       .  A
Ni293       O296   1.912       .  S
Ni293       O298   1.906       .  S
C294        O304   1.270       .  A
C294        C951   1.488       .  S
O295       Ni311   1.933       .  S
O295        C301   1.281       .  A
O296        C301   1.276       .  A
C297        C852   1.485       .  S
O298        C300   1.270       .  A
O299       Ni310   1.933       .  S
C300        O306   1.277       .  A
C300        C543   1.478       .  S
C301        C351   1.484       .  S
H302        O303   0.968       .  S
O303       Ni311   1.903       .  S
O303       Ni305   1.899       .  S
O303       Ni310   1.906       .  S
O304       Ni305   1.920       .  S
Ni305       O309   1.908       .  S
Ni305       O307   1.907       .  S
O306       Ni311   1.945       .  S
C308        O309   1.267       .  A
C308        C372   1.479       .  S
C313        C314   1.397       .  A
C313        C318   1.402       .  A
C313        H329   1.084       .  S
C314        C315   1.402       .  A
C314        H330   1.083       .  S
C315        C325   1.402       .  A
C315        C316   1.413       .  A
C316        C322   1.409       .  A
C316        C317   1.410       .  A
C317        C319   1.413       .  A
C317        C318   1.410       .  A
C318        C326   1.397       .  A
C319        C328   1.405       .  A
C319        C320   1.404       .  A
C320        C321   1.400       .  A
C320        H331   1.084       .  S
C321        C322   1.405       .  A
C321        H332   1.084       .  S
C322        C323   1.402       .  A
C323        C324   1.410       .  A
C323        H333   1.084       .  S
C324        C325   1.406       .  A
C325        H334   1.084       .  S
C326        C327   1.405       .  A
C326        H335   1.084       .  S
C327        C328   1.407       .  A
C328        H336   1.084       .  S
C337        C338   1.398       .  A
C337        C342   1.403       .  A
C337        H353   1.084       .  S
C338        C339   1.403       .  A
C338        H354   1.083       .  S
C339        C349   1.402       .  A
C339        C340   1.411       .  A
C340        C346   1.412       .  A
C340        C341   1.411       .  A
C341        C343   1.410       .  A
C341        C342   1.412       .  A
C342        C350   1.403       .  A
C343        C352   1.402       .  A
C343        C344   1.404       .  A
C344        C345   1.399       .  A
C344        H355   1.084       .  S
C345        C346   1.403       .  A
C345        H356   1.084       .  S
C346        C347   1.403       .  A
C347        C348   1.406       .  A
C347        H357   1.085       .  S
C348        C349   1.406       .  A
C349        H358   1.084       .  S
C350        C351   1.407       .  A
C350        H359   1.084       .  S
C351        C352   1.411       .  A
C352        H360   1.084       .  S
C361        C362   1.399       .  A
C361        C366   1.404       .  A
C361        H377   1.084       .  S
C362        C363   1.403       .  A
C362        H378   1.084       .  S
C363        C373   1.404       .  A
C363        C364   1.413       .  A
C364        C370   1.409       .  A
C364        C365   1.410       .  A
C365        C367   1.414       .  A
C365        C366   1.409       .  A
C366        C374   1.399       .  A
C367        C376   1.402       .  A
C367        C368   1.402       .  A
C368        C369   1.397       .  A
C368        H379   1.084       .  S
C369        C370   1.403       .  A
C369        H380   1.084       .  S
C370        C371   1.398       .  A
C371        C372   1.407       .  A
C371        H381   1.084       .  S
C372        C373   1.407       .  A
C373        H382   1.084       .  S
C374        C375   1.409       .  A
C374        H383   1.084       .  S
C375        C376   1.403       .  A
C376        H384   1.085       .  S
C385        C386   1.398       .  A
C385        C390   1.404       .  A
C385        H401   1.084   1_554  S
C386        C387   1.403       .  A
C386        H402   1.084       .  S
C387        C397   1.404       .  A
C387        C388   1.413       .  A
C388        C394   1.409       .  A
C388        C389   1.412       .  A
C389        C391   1.414       .  A
C389        C390   1.409       .  A
C390        C398   1.400       .  A
C391        C400   1.407       .  A
C391        C392   1.403       .  A
C392        C393   1.400       .  A
C392        H403   1.084       .  S
C393        C394   1.405       .  A
C393        H404   1.084       .  S
C394        C395   1.402       .  A
C395        C396   1.410       .  A
C395        H405   1.084       .  S
C396        C397   1.406       .  A
C397        H406   1.084       .  S
C398        C399   1.410       .  A
C398        H407   1.084   1_554  S
C399        C400   1.407       .  A
C400        H408   1.084       .  S
C409        C410   1.400       .  A
C409        C414   1.404       .  A
C409        H425   1.084       .  S
C410        C411   1.404       .  A
C410        H426   1.084       .  S
C411        C421   1.404   1_556  A
C411        C412   1.411       .  A
C412        C418   1.411       .  A
C412        C413   1.413       .  A
C413        C415   1.411       .  A
C413        C414   1.411       .  A
C414        C422   1.404       .  A
C415        C424   1.403       .  A
C415        C416   1.403       .  A
C416        C417   1.399       .  A
C416        H427   1.084       .  S
C417        C418   1.404       .  A
C417        H428   1.083       .  S
C418        C419   1.404       .  A
C419        C420   1.409   1_556  A
C419        H429   1.084   1_556  S
C420        C421   1.410       .  A
C421        H430   1.084       .  S
C422        C423   1.410       .  A
C422        H431   1.084       .  S
C423        C424   1.407       .  A
C424        H432   1.084       .  S
C433        C434   1.398       .  A
C433        C438   1.404       .  A
C433        H449   1.084       .  S
C434        C435   1.403       .  A
C434        H450   1.084       .  S
C435        C445   1.403       .  A
C435        C436   1.412       .  A
C436        C442   1.410       .  A
C436        C437   1.412       .  A
C437        C439   1.412       .  A
C437        C438   1.410       .  A
C438        C446   1.401       .  A
C439        C448   1.405       .  A
C439        C440   1.403       .  A
C440        C441   1.399       .  A
C440        H451   1.084       .  S
C441        C442   1.404       .  A
C441        H452   1.084       .  S
C442        C443   1.402       .  A
C443        C444   1.410       .  A
C443        H453   1.084       .  S
C444        C445   1.406       .  A
C445        H454   1.084       .  S
C446        C447   1.409       .  A
C446        H455   1.084       .  S
C447        C448   1.408       .  A
C448        H456   1.084       .  S
C457        C458   1.398       .  A
C457        C462   1.403       .  A
C457        H473   1.084       .  S
C458        C459   1.403       .  A
C458        H474   1.084       .  S
C459        C469   1.401       .  A
C459        C460   1.411       .  A
C460        C466   1.413       .  A
C460        C461   1.413       .  A
C461        C463   1.412       .  A
C461        C462   1.412       .  A
C462        C470   1.402       .  A
C463        C472   1.406       .  A
C463        C464   1.405       .  A
C464        C465   1.401       .  A
C464        H475   1.083       .  S
C465        C466   1.404       .  A
C465        H476   1.084       .  S
C466        C467   1.406       .  A
C467        C468   1.406       .  A
C467        H477   1.084       .  S
C468        C469   1.407       .  A
C469        H478   1.085       .  S
C470        C471   1.405       .  A
C470        H479   1.085       .  S
C471        C472   1.407       .  A
C472        H480   1.084       .  S
C481        C482   1.403       .  A
C481        C486   1.404       .  A
C481        H497   1.083       .  S
C482        C483   1.405       .  A
C482        H498   1.083       .  S
C483        C493   1.408       .  A
C483        C484   1.411       .  A
C484        C490   1.413       .  A
C484        C485   1.415       .  A
C485        C487   1.409       .  A
C485        C486   1.415       .  A
C486        C494   1.413       .  A
C487        C496   1.399       .  A
C487        C488   1.404       .  A
C488        C489   1.398       .  A
C488        H499   1.084       .  S
C489        C490   1.403       .  A
C489        H500   1.084       .  S
C490        C491   1.405       .  A
C491        C492   1.407       .  A
C491        H501   1.085       .  S
C492        C493   1.407       .  A
C493        H502   1.084       .  S
C494        C495   1.407       .  A
C494        H503   1.084       .  S
C495        C496   1.409       .  A
C496        H504   1.085       .  S
C505        C506   1.399       .  A
C505        C510   1.404       .  A
C505        H521   1.083       .  S
C506        C507   1.403       .  A
C506        H522   1.084       .  S
C507        C517   1.402       .  A
C507        C508   1.412       .  A
C508        C514   1.412       .  A
C508        C509   1.413       .  A
C509        C511   1.412       .  A
C509        C510   1.412       .  A
C510        C518   1.404       .  A
C511        C520   1.405       .  A
C511        C512   1.404       .  A
C512        C513   1.401       .  A
C512        H523   1.084       .  S
C513        C514   1.404       .  A
C513        H524   1.083       .  S
C514        C515   1.406       .  A
C515        C516   1.408       .  A
C515        H525   1.084       .  S
C516        C517   1.405       .  A
C517        H526   1.085       .  S
C518        C519   1.408       .  A
C518        H527   1.084       .  S
C519        C520   1.407       .  A
C520        H528   1.084       .  S
C529        C530   1.398       .  A
C529        C534   1.403       .  A
C529        H545   1.084       .  S
C530        C531   1.403       .  A
C530        H546   1.084       .  S
C531        C541   1.403       .  A
C531        C532   1.413       .  A
C532        C538   1.412       .  A
C532        C533   1.414       .  A
C533        C535   1.414       .  A
C533        C534   1.410       .  A
C534        C542   1.400       .  A
C535        C544   1.411       .  A
C535        C536   1.405       .  A
C536        C537   1.402       .  A
C536        H547   1.083       .  S
C537        C538   1.405       .  A
C537        H548   1.084       .  S
C538        C539   1.407       .  A
C539        C540   1.406       .  A
C539        H549   1.085       .  S
C540        C541   1.404       .  A
C541        H550   1.085       .  S
C542        C543   1.406       .  A
C542        H551   1.085       .  S
C543        C544   1.406       .  A
C544        H552   1.084       .  S
C553        C554   1.395       .  A
C553        C558   1.401       .  A
C553        H569   1.084       .  S
C554        C555   1.402       .  A
C554        H570   1.084       .  S
C555        C565   1.395       .  A
C555        C556   1.409       .  A
C556        C562   1.413       .  A
C556        C557   1.410       .  A
C557        C559   1.410       .  A
C557        C558   1.412       .  A
C558        C566   1.398       .  A
C559        C568   1.404       .  A
C559        C560   1.405       .  A
C560        C561   1.401       .  A
C560        H571   1.084       .  S
C561        C562   1.405       .  A
C561        H572   1.084       .  S
C562        C563   1.408       .  A
C563        C564   1.409       .  A
C563        H573   1.084       .  S
C564        C565   1.406       .  A
C565        H574   1.084       .  S
C566        C567   1.405       .  A
C566        H575   1.084       .  S
C567        C568   1.410       .  A
C568        H576   1.084       .  S
C577        C578   1.398       .  A
C577        C582   1.404       .  A
C577        H593   1.084       .  S
C578        C579   1.403       .  A
C578        H594   1.084       .  S
C579        C589   1.403       .  A
C579        C580   1.413       .  A
C580        C586   1.410       .  A
C580        C581   1.412       .  A
C581        C583   1.413       .  A
C581        C582   1.409       .  A
C582        C590   1.401       .  A
C583        C592   1.405       .  A
C583        C584   1.403       .  A
C584        C585   1.399       .  A
C584        H595   1.084       .  S
C585        C586   1.404       .  A
C585        H596   1.084       .  S
C586        C587   1.402       .  A
C587        C588   1.409   1_554  A
C587        H597   1.084   1_554  S
C588        C589   1.407   1_556  A
C589        H598   1.084   1_554  S
C590        C591   1.410       .  A
C590        H599   1.084       .  S
C591        C592   1.407       .  A
C592        H600   1.084       .  S
C601        C602   1.405   1_455  A
C601        C606   1.406       .  A
C601        H617   1.083       .  S
C602        C603   1.406       .  A
C602        H618   1.083       .  S
C603        C613   1.412       .  A
C603        C604   1.411       .  A
C604        C610   1.411       .  A
C604        C605   1.416   1_655  A
C605        C607   1.409       .  A
C605        C606   1.413       .  A
C606        C614   1.415       .  A
C607        C616   1.399       .  A
C607        C608   1.403       .  A
C608        C609   1.396   1_455  A
C608        H619   1.084       .  S
C609        C610   1.402       .  A
C609        H620   1.084       .  S
C610        C611   1.401       .  A
C611        C612   1.408       .  A
C611        H621   1.084       .  S
C612        C613   1.413       .  A
C613        H622   1.084       .  S
C614        C615   1.413       .  A
C614        H623   1.084       .  S
C615        C616   1.410       .  A
C616        H624   1.084       .  S
C625        C626   1.398       .  A
C625        C630   1.404       .  A
C625        H641   1.084       .  S
C626        C627   1.403       .  A
C626        H642   1.084       .  S
C627        C637   1.403       .  A
C627        C628   1.413       .  A
C628        C634   1.411       .  A
C628        C629   1.412       .  A
C629        C631   1.413       .  A
C629        C630   1.411       .  A
C630        C638   1.401       .  A
C631        C640   1.407       .  A
C631        C632   1.404       .  A
C632        C633   1.401       .  A
C632        H643   1.084       .  S
C633        C634   1.405       .  A
C633        H644   1.083       .  S
C634        C635   1.405       .  A
C635        C636   1.407       .  A
C635        H645   1.084       .  S
C636        C637   1.403       .  A
C637        H646   1.085       .  S
C638        C639   1.406       .  A
C638        H647   1.085       .  S
C639        C640   1.405       .  A
C640        H648   1.084       .  S
C649        C650   1.400       .  A
C649        C654   1.405       .  A
C649        H665   1.084       .  S
C650        C651   1.404       .  A
C650        H666   1.084       .  S
C651        C661   1.405       .  A
C651        C652   1.412       .  A
C652        C658   1.410       .  A
C652        C653   1.412       .  A
C653        C655   1.412       .  A
C653        C654   1.410       .  A
C654        C662   1.404       .  A
C655        C664   1.403       .  A
C655        C656   1.403       .  A
C656        C657   1.397       .  A
C656        H667   1.084       .  S
C657        C658   1.403       .  A
C657        H668   1.084       .  S
C658        C659   1.399       .  A
C659        C660   1.406       .  A
C659        H669   1.084       .  S
C660        C661   1.408       .  A
C661        H670   1.084       .  S
C662        C663   1.412       .  A
C662        H671   1.084       .  S
C663        C664   1.407       .  A
C664        H672   1.084       .  S
C673        C674   1.399       .  A
C673        C678   1.403       .  A
C673        H689   1.084       .  S
C674        C675   1.404       .  A
C674        H690   1.084       .  S
C675        C685   1.402       .  A
C675        C676   1.409       .  A
C676        C682   1.414       .  A
C676        C677   1.414       .  A
C677        C679   1.409       .  A
C677        C678   1.413       .  A
C678        C686   1.407       .  A
C679        C688   1.404       .  A
C679        C680   1.405       .  A
C680        C681   1.400       .  A
C680        H691   1.083       .  S
C681        C682   1.403       .  A
C681        H692   1.084       .  S
C682        C683   1.407       .  A
C683        C684   1.407       .  A
C683        H693   1.084       .  S
C684        C685   1.411       .  A
C685        H694   1.084       .  S
C686        C687   1.408       .  A
C686        H695   1.084       .  S
C687        C688   1.413       .  A
C688        H696   1.084       .  S
C697        C698   1.399   1_655  A
C697        C702   1.403       .  A
C697        H713   1.084       .  S
C698        C699   1.404       .  A
C698        H714   1.084       .  S
C699        C709   1.404       .  A
C699        C700   1.409       .  A
C700        C706   1.413       .  A
C700        C701   1.421   1_455  A
C701        C703   1.412       .  A
C701        C702   1.411       .  A
C702        C710   1.405       .  A
C703        C712   1.416       .  A
C703        C704   1.407       .  A
C704        C705   1.407   1_655  A
C704        H715   1.083       .  S
C705        C706   1.407       .  A
C705        H716   1.083       .  S
C706        C707   1.418       .  A
C707        C708   1.414       .  A
C707        H717   1.084       .  S
C708        C709   1.413       .  A
C709        H718   1.084       .  S
C710        C711   1.411       .  A
C710        H719   1.084       .  S
C711        C712   1.414       .  A
C712        H720   1.084       .  S
C721        C722   1.399       .  A
C721        C726   1.403       .  A
C721        H737   1.084       .  S
C722        C723   1.404       .  A
C722        H738   1.083       .  S
C723        C733   1.403       .  A
C723        C724   1.410       .  A
C724        C730   1.413       .  A
C724        C725   1.415       .  A
C725        C727   1.411       .  A
C725        C726   1.414       .  A
C726        C734   1.406       .  A
C727        C736   1.408       .  A
C727        C728   1.405       .  A
C728        C729   1.403       .  A
C728        H739   1.083   1_556  S
C729        C730   1.405       .  A
C729        H740   1.084       .  S
C730        C731   1.410       .  A
C731        C732   1.409       .  A
C731        H741   1.084       .  S
C732        C733   1.407       .  A
C733        H742   1.084       .  S
C734        C735   1.404       .  A
C734        H743   1.085       .  S
C735        C736   1.408       .  A
C736        H744   1.084   1_556  S
C745        C746   1.400   1_545  A
C745        C750   1.404       .  A
C745        H761   1.084       .  S
C746        C747   1.404       .  A
C746        H762   1.084       .  S
C747        C757   1.406       .  A
C747        C748   1.412       .  A
C748        C754   1.411       .  A
C748        C749   1.414   1_565  A
C749        C751   1.412       .  A
C749        C750   1.411       .  A
C750        C758   1.405       .  A
C751        C760   1.405       .  A
C751        C752   1.404   1_545  A
C752        C753   1.400       .  A
C752        H763   1.083   1_565  S
C753        C754   1.404       .  A
C753        H764   1.083       .  S
C754        C755   1.405       .  A
C755        C756   1.407       .  A
C755        H765   1.084       .  S
C756        C757   1.408       .  A
C757        H766   1.084       .  S
C758        C759   1.410       .  A
C758        H767   1.084       .  S
C759        C760   1.408       .  A
C760        H768   1.084       .  S
C769        C770   1.397       .  A
C769        C774   1.402       .  A
C769        H785   1.084       .  S
C770        C771   1.403       .  A
C770        H786   1.084       .  S
C771        C781   1.400       .  A
C771        C772   1.411       .  A
C772        C778   1.413       .  A
C772        C773   1.414       .  A
C773        C775   1.411       .  A
C773        C774   1.412       .  A
C774        C782   1.401       .  A
C775        C784   1.408       .  A
C775        C776   1.405       .  A
C776        C777   1.403       .  A
C776        H787   1.084       .  S
C777        C778   1.405       .  A
C777        H788   1.083       .  S
C778        C779   1.410       .  A
C779        C780   1.408       .  A
C779        H789   1.084       .  S
C780        C781   1.404       .  A
C781        H790   1.085       .  S
C782        C783   1.404       .  A
C782        H791   1.084       .  S
C783        C784   1.410       .  A
C784        H792   1.084       .  S
C793        C794   1.398       .  A
C793        C798   1.403       .  A
C793        H809   1.084       .  S
C794        C795   1.403       .  A
C794        H810   1.084       .  S
C795        C805   1.401       .  A
C795        C796   1.411       .  A
C796        C802   1.413       .  A
C796        C797   1.415       .  A
C797        C799   1.413       .  A
C797        C798   1.411       .  A
C798        C806   1.401       .  A
C799        C808   1.410       .  A
C799        C800   1.405       .  A
C800        C801   1.403       .  A
C800        H811   1.083       .  S
C801        C802   1.405       .  A
C801        H812   1.083       .  S
C802        C803   1.410       .  A
C803        C804   1.409       .  A
C803        H813   1.084       .  S
C804        C805   1.405       .  A
C805        H814   1.085       .  S
C806        C807   1.408       .  A
C806        H815   1.085       .  S
C807        C808   1.407       .  A
C808        H816   1.084       .  S
C817        C818   1.402       .  A
C817        C822   1.404   1_565  A
C817        H833   1.083       .  S
C818        C819   1.405       .  A
C818        H834   1.083       .  S
C819        C829   1.409       .  A
C819        C820   1.411       .  A
C820        C826   1.412       .  A
C820        C821   1.419       .  A
C821        C823   1.410   1_565  A
C821        C822   1.413   1_565  A
C822        C830   1.411       .  A
C823        C832   1.409       .  A
C823        C824   1.405       .  A
C824        C825   1.403   1_545  A
C824        H835   1.084       .  S
C825        C826   1.405       .  A
C825        H836   1.084       .  S
C826        C827   1.411       .  A
C827        C828   1.411       .  A
C827        H837   1.084       .  S
C828        C829   1.410       .  A
C829        H838   1.084       .  S
C830        C831   1.409       .  A
C830        H839   1.084       .  S
C831        C832   1.412       .  A
C832        H840   1.084       .  S
C841        C842   1.403       .  A
C841        C846   1.405       .  A
C841        H857   1.083       .  S
C842        C843   1.405       .  A
C842        H858   1.083       .  S
C843        C853   1.411       .  A
C843        C844   1.412       .  A
C844        C850   1.412       .  A
C844        C845   1.417       .  A
C845        C847   1.411       .  A
C845        C846   1.413       .  A
C846        C854   1.411       .  A
C847        C856   1.405       .  A
C847        C848   1.404       .  A
C848        C849   1.400       .  A
C848        H859   1.084       .  S
C849        C850   1.403       .  A
C849        H860   1.084       .  S
C850        C851   1.406       .  A
C851        C852   1.406       .  A
C851        H861   1.084       .  S
C852        C853   1.409       .  A
C853        H862   1.084       .  S
C854        C855   1.409       .  A
C854        H863   1.084       .  S
C855        C856   1.408       .  A
C856        H864   1.084       .  S
C865        C866   1.397       .  A
C865        C870   1.403       .  A
C865        H881   1.084       .  S
C866        C867   1.403       .  A
C866        H882   1.084       .  S
C867        C877   1.398       .  A
C867        C868   1.410       .  A
C868        C874   1.415       .  A
C868        C869   1.414       .  A
C869        C871   1.411       .  A
C869        C870   1.413       .  A
C870        C878   1.403       .  A
C871        C880   1.407       .  A
C871        C872   1.405       .  A
C872        C873   1.402       .  A
C872        H883   1.083       .  S
C873        C874   1.404       .  A
C873        H884   1.083       .  S
C874        C875   1.410       .  A
C875        C876   1.405       .  A
C875        H885   1.084       .  S
C876        C877   1.405       .  A
C877        H886   1.085       .  S
C878        C879   1.403       .  A
C878        H887   1.085       .  S
C879        C880   1.407       .  A
C880        H888   1.084       .  S
C889        C890   1.399       .  A
C889        C894   1.404       .  A
C889        H905   1.084       .  S
C890        C891   1.403       .  A
C890        H906   1.084       .  S
C891        C901   1.404       .  A
C891        C892   1.412       .  A
C892        C898   1.411       .  A
C892        C893   1.415       .  A
C893        C895   1.412       .  A
C893        C894   1.410       .  A
C894        C902   1.403       .  A
C895        C904   1.409       .  A
C895        C896   1.405       .  A
C896        C897   1.402       .  A
C896        H907   1.083       .  S
C897        C898   1.404       .  A
C897        H908   1.084       .  S
C898        C899   1.407       .  A
C899        C900   1.410       .  A
C899        H909   1.084       .  S
C900        C901   1.408       .  A
C901        H910   1.084       .  S
C902        C903   1.410       .  A
C902        H911   1.084       .  S
C903        C904   1.411       .  A
C904        H912   1.084       .  S
C913        C914   1.399       .  A
C913        C918   1.404       .  A
C913        H929   1.084       .  S
C914        C915   1.403       .  A
C914        H930   1.084       .  S
C915        C925   1.403       .  A
C915        C916   1.412       .  A
C916        C922   1.410       .  A
C916        C917   1.410       .  A
C917        C919   1.412       .  A
C917        C918   1.410       .  A
C918        C926   1.401       .  A
C919        C928   1.402       .  A
C919        C920   1.403       .  A
C920        C921   1.397       .  A
C920        H931   1.084       .  S
C921        C922   1.403       .  A
C921        H932   1.084       .  S
C922        C923   1.399       .  A
C923        C924   1.408       .  A
C923        H933   1.084       .  S
C924        C925   1.407       .  A
C925        H934   1.084       .  S
C926        C927   1.410   1_554  A
C926        H935   1.084       .  S
C927        C928   1.406   1_556  A
C928        H936   1.084   1_554  S
C937        C938   1.398       .  A
C937        C942   1.403   1_455  A
C937        H953   1.084   1_455  S
C938        C939   1.404       .  A
C938        H954   1.084       .  S
C939        C949   1.404       .  A
C939        C940   1.411       .  A
C940        C946   1.411       .  A
C940        C941   1.416       .  A
C941        C943   1.412   1_455  A
C941        C942   1.410   1_455  A
C942        C950   1.402       .  A
C943        C952   1.410       .  A
C943        C944   1.405       .  A
C944        C945   1.403   1_655  A
C944        H955   1.083       .  S
C945        C946   1.406       .  A
C945        H956   1.083       .  S
C946        C947   1.411       .  A
C947        C948   1.412       .  A
C947        H957   1.084       .  S
C948        C949   1.411       .  A
C949        H958   1.084       .  S
C950        C951   1.410       .  A
C950        H959   1.084       .  S
C951        C952   1.409       .  A
C952        H960   1.084       .  S
C961        C962   1.405   1_545  A
C961        C966   1.406       .  A
C961        H977   1.083       .  S
C962        C963   1.406       .  A
C962        H978   1.083       .  S
C963        C973   1.411       .  A
C963        C964   1.411       .  A
C964        C970   1.412       .  A
C964        C965   1.415   1_565  A
C965        C967   1.409       .  A
C965        C966   1.413       .  A
C966        C974   1.414       .  A
C967        C976   1.398       .  A
C967        C968   1.403       .  A
C968        C969   1.396   1_545  A
C968        H979   1.084       .  S
C969        C970   1.402       .  A
C969        H980   1.084       .  S
C970        C971   1.401       .  A
C971        C972   1.406       .  A
C971        H981   1.084       .  S
C972        C973   1.411       .  A
C973        H982   1.084       .  S
C974        C975   1.412       .  A
C974        H983   1.084       .  S
C975        C976   1.408       .  A
C976        H984   1.085       .  S
C985        C986   1.398       .  A
C985        C990   1.403       .  A
C985       H1001   1.084       .  S
C986        C987   1.403       .  A
C986       H1002   1.083       .  S
C987        C997   1.405       .  A
C987        C988   1.413       .  A
C988        C994   1.411       .  A
C988        C989   1.415       .  A
C989        C991   1.413       .  A
C989        C990   1.411       .  A
C990        C998   1.401       .  A
C991       C1000   1.409       .  A
C991        C992   1.404       .  A
C992        C993   1.402       .  A
C992       H1003   1.084       .  S
C993        C994   1.406       .  A
C993       H1004   1.083       .  S
C994        C995   1.408       .  A
C995        C996   1.409       .  A
C995       H1005   1.084       .  S
C996        C997   1.405       .  A
C997       H1006   1.085       .  S
C998        C999   1.406       .  A
C998       H1007   1.085       .  S
C999       C1000   1.408       .  A
C1000      H1008   1.084       .  S
C1009      C1010   1.397       .  A
C1009      C1014   1.402       .  A
C1009      H1025   1.084       .  S
C1010      C1011   1.404       .  A
C1010      H1026   1.084       .  S
C1011      C1021   1.398       .  A
C1011      C1012   1.408       .  A
C1012      C1018   1.414       .  A
C1012      C1013   1.412       .  A
C1013      C1015   1.409       .  A
C1013      C1014   1.414       .  A
C1014      C1022   1.404       .  A
C1015      C1024   1.401       .  A
C1015      C1016   1.405       .  A
C1016      C1017   1.400       .  A
C1016      H1027   1.084       .  S
C1017      C1018   1.404       .  A
C1017      H1028   1.084       .  S
C1018      C1019   1.407       .  A
C1019      C1020   1.407       .  A
C1019      H1029   1.084       .  S
C1020      C1021   1.408       .  A
C1021      H1030   1.084       .  S
C1022      C1023   1.404       .  A
C1022      H1031   1.084       .  S
C1023      C1024   1.410       .  A
C1024      H1032   1.084       .  S
C1033      C1034   1.395   1_655  A
C1033      C1038   1.402       .  A
C1033      H1049   1.084       .  S
C1034      C1035   1.402       .  A
C1034      H1050   1.084       .  S
C1035      C1045   1.399       .  A
C1035      C1036   1.410       .  A
C1036      C1042   1.412       .  A
C1036      C1037   1.414   1_455  A
C1037      C1039   1.412       .  A
C1037      C1038   1.409       .  A
C1038      C1046   1.397       .  A
C1039      C1048   1.412       .  A
C1039      C1040   1.406       .  A
C1040      C1041   1.404   1_655  A
C1040      H1051   1.083       .  S
C1041      C1042   1.406       .  A
C1041      H1052   1.083       .  S
C1042      C1043   1.412       .  A
C1043      C1044   1.412       .  A
C1043      H1053   1.084       .  S
C1044      C1045   1.408       .  A
C1045      H1054   1.084       .  S
C1046      C1047   1.409       .  A
C1046      H1055   1.084       .  S
C1047      C1048   1.411       .  A
C1048      H1056   1.084       .  S
C1057      C1058   1.399   1_565  A
C1057      C1062   1.403       .  A
C1057      H1073   1.083       .  S
C1058      C1059   1.403       .  A
C1058      H1074   1.084       .  S
C1059      C1069   1.401       .  A
C1059      C1060   1.411       .  A
C1060      C1066   1.413       .  A
C1060      C1061   1.412   1_545  A
C1061      C1063   1.410       .  A
C1061      C1062   1.413       .  A
C1062      C1070   1.405       .  A
C1063      C1072   1.402       .  A
C1063      C1064   1.404       .  A
C1064      C1065   1.400   1_565  A
C1064      H1075   1.084       .  S
C1065      C1066   1.404       .  A
C1065      H1076   1.084       .  S
C1066      C1067   1.405       .  A
C1067      C1068   1.407       .  A
C1067      H1077   1.084       .  S
C1068      C1069   1.406       .  A
C1069      H1078   1.084       .  S
C1070      C1071   1.406       .  A
C1070      H1079   1.084       .  S
C1071      C1072   1.410       .  A
C1072      H1080   1.084       .  S
C1081      C1082   1.400       .  A
C1081      C1086   1.404       .  A
C1081      H1097   1.084       .  S
C1082      C1083   1.404       .  A
C1082      H1098   1.084       .  S
C1083      C1093   1.407       .  A
C1083      C1084   1.413       .  A
C1084      C1090   1.411       .  A
C1084      C1085   1.415       .  A
C1085      C1087   1.413       .  A
C1085      C1086   1.411       .  A
C1086      C1094   1.404       .  A
C1087      C1096   1.407       .  A
C1087      C1088   1.404       .  A
C1088      C1089   1.401       .  A
C1088      H1099   1.084       .  S
C1089      C1090   1.404       .  A
C1089      H1100   1.083       .  S
C1090      C1091   1.406       .  A
C1091      C1092   1.407       .  A
C1091      H1101   1.084       .  S
C1092      C1093   1.407       .  A
C1093      H1102   1.085       .  S
C1094      C1095   1.407       .  A
C1094      H1103   1.084       .  S
C1095      C1096   1.407       .  A
C1096      H1104   1.085       .  S
C1105      C1106   1.400       .  A
C1105      C1110   1.405       .  A
C1105      H1121   1.084   1_554  S
C1106      C1107   1.404       .  A
C1106      H1122   1.084       .  S
C1107      C1117   1.408       .  A
C1107      C1108   1.414       .  A
C1108      C1114   1.409       .  A
C1108      C1109   1.413       .  A
C1109      C1111   1.414       .  A
C1109      C1110   1.409       .  A
C1110      C1118   1.403       .  A
C1111      C1120   1.405       .  A
C1111      C1112   1.403       .  A
C1112      C1113   1.398       .  A
C1112      H1123   1.084       .  S
C1113      C1114   1.404       .  A
C1113      H1124   1.084       .  S
C1114      C1115   1.400       .  A
C1115      C1116   1.410       .  A
C1115      H1125   1.084       .  S
C1116      C1117   1.408       .  A
C1117      H1126   1.084       .  S
C1118      C1119   1.411       .  A
C1118      H1127   1.084   1_554  S
C1119      C1120   1.406       .  A
C1120      H1128   1.084       .  S
C1129      C1130   1.400       .  A
C1129      C1134   1.404       .  A
C1129      H1145   1.084       .  S
C1130      C1131   1.404       .  A
C1130      H1146   1.084       .  S
C1131      C1141   1.404       .  A
C1131      C1132   1.411       .  A
C1132      C1138   1.411       .  A
C1132      C1133   1.413       .  A
C1133      C1135   1.411       .  A
C1133      C1134   1.411       .  A
C1134      C1142   1.404   1_556  A
C1135      C1144   1.404       .  A
C1135      C1136   1.404       .  A
C1136      C1137   1.399       .  A
C1136      H1147   1.083       .  S
C1137      C1138   1.403       .  A
C1137      H1148   1.084       .  S
C1138      C1139   1.403       .  A
C1139      C1140   1.407       .  A
C1139      H1149   1.084       .  S
C1140      C1141   1.410       .  A
C1141      H1150   1.084       .  S
C1142      C1143   1.410       .  A
C1142      H1151   1.084       .  S
C1143      C1144   1.410   1_554  A
C1144      H1152   1.084   1_556  S
C1153      C1154   1.396       .  A
C1153      C1158   1.403       .  A
C1153      H1169   1.084       .  S
C1154      C1155   1.402       .  A
C1154      H1170   1.084       .  S
C1155      C1165   1.402       .  A
C1155      C1156   1.413       .  A
C1156      C1162   1.409       .  A
C1156      C1157   1.412       .  A
C1157      C1159   1.413       .  A
C1157      C1158   1.409       .  A
C1158      C1166   1.398       .  A
C1159      C1168   1.407       .  A
C1159      C1160   1.404       .  A
C1160      C1161   1.401       .  A
C1160      H1171   1.084       .  S
C1161      C1162   1.405       .  A
C1161      H1172   1.084       .  S
C1162      C1163   1.403       .  A
C1163      C1164   1.412       .  A
C1163      H1173   1.084       .  S
C1164      C1165   1.406       .  A
C1165      H1174   1.084       .  S
C1166      C1167   1.409       .  A
C1166      H1175   1.084       .  S
C1167      C1168   1.409       .  A
C1168      H1176   1.084       .  S
