geometry optimzed in LAMMPS
_audit_creation_date              2020-11-30 
_audit_creation_method            'lammps2cif' 
_symmetry_space_group_name_H-M    'P1' 
_symmetry_Int_Tables_number       1 
_symmetry_cell_setting            triclinic 
loop_ 
_symmetry_equiv_pos_as_xyz 
  x,y,z 
_cell_length_a                    40.40892368 
_cell_length_b                    40.372734463101146 
_cell_length_c                    29.859808358465422 
_cell_angle_alpha                 90.0132825114226 
_cell_angle_beta                  89.73280531827375 
_cell_angle_gamma                 120.30393303551472 
loop_ 
_atom_site_label 
_atom_site_type_symbol 
_atom_site_fract_x 
_atom_site_fract_y 
_atom_site_fract_z 
_atom_site_charge 
O1          O  0.48534010  0.57491175  0.41949762    -0.85700
O2          O  0.48731873  0.61901379  0.34853387    -0.82800
C3          C  0.48626545  0.62955790  0.30910166     0.97700
O4          O  0.47277312  0.60482774  0.27809827    -0.82800
O5          O  0.52295105  0.57742065  0.26937146    -0.85400
C6          C  0.54020155  0.55945155  0.27789872     1.02300
O7          O  0.52586282  0.53155418  0.30515191    -0.78200
O8          O  0.52744258  0.56399844  0.38664491    -0.78400
C9          C  0.51895787  0.58061554  0.41637929     1.02200
O10         O  0.41061934  0.51668031  0.39305727    -0.85700
O11         O  0.40936295  0.56370186  0.32817597    -0.82800
C12         C  0.39303274  0.54062566  0.29635317     0.97800
O13         O  0.41006441  0.52693823  0.27463991    -0.82800
O14         O  0.45934098  0.50057800  0.25845301    -0.85400
C15         C  0.44654130  0.47010052  0.28143635     1.02200
O16         O  0.44907900  0.47153922  0.32357099    -0.78200
O17         O  0.45266156  0.49947820  0.40904149    -0.78400
C18         C  0.42018510  0.49648837  0.41546047     1.02200
Cr19       Cr  0.44954529  0.56699656  0.36954912     1.93700
Cr20       Cr  0.46650887  0.55205137  0.27440676     1.93200
Cr21       Cr  0.48731276  0.51864760  0.35463769     1.39100
O22         O  0.46765277  0.54570751  0.33273979    -1.23500
O23         O  0.43972117  0.92303217  0.43086640    -0.85700
O24         O  0.38932898  0.88267733  0.36488473    -0.82800
C25         C  0.37454028  0.87083555  0.32721343     0.97700
O26         O  0.39596616  0.87841686  0.29301250    -0.82800
O27         O  0.42731113  0.95608633  0.28298810    -0.85400
C28         C  0.44712001  0.99143984  0.29123201     1.02300
O29         O  0.47752786  0.00452082  0.31404909    -0.78200
O30         O  0.45122964  0.97640070  0.39883289    -0.78400
C31         C  0.43546357  0.95191936  0.42970063     1.02200
O32         O  0.49102246  0.90057907  0.39510352    -0.85700
O33         O  0.43695005  0.85299619  0.33505738    -0.82800
C34         C  0.45800176  0.85788935  0.30133609     0.97800
O35         O  0.47185310  0.88853534  0.27903530    -0.82800
O36         O  0.50048887  0.96484475  0.26114983    -0.85400
C37         C  0.53287803  0.98132759  0.28010819     1.02200
O38         O  0.53513836  0.98328894  0.32229096    -0.78200
O39         O  0.51407687  0.96141131  0.41032074    -0.78400
C40         C  0.51527565  0.93071735  0.41455050     1.02200
Cr41       Cr  0.44075285  0.89261804  0.37858504     1.93700
Cr42       Cr  0.44971962  0.92254361  0.28313685     1.93200
Cr43       Cr  0.49234991  0.97812317  0.36016808     1.39100
O44         O  0.46124568  0.93122069  0.34047721    -1.23500
O45         O  0.09817415  0.50680844  0.39528445    -0.85700
O46         O  0.15111804  0.56026735  0.33811388    -0.82800
C47         C  0.14860983  0.53951205  0.30513914     0.97700
O48         O  0.11887489  0.52456572  0.28148643    -0.82800
O49         O  0.04437331  0.49829340  0.25581562    -0.85400
C50         C  0.02435361  0.46656440  0.27575822     1.02300
O51         O  0.01987816  0.46534965  0.31767423    -0.78200
O52         O  0.03699127  0.48618909  0.40589736    -0.78400
C53         C  0.06624714  0.48273733  0.41192125     1.02200
O54         O  0.07698695  0.56041819  0.42554701    -0.85700
O55         O  0.12346380  0.61086690  0.36019057    -0.82800
C56         C  0.13785177  0.62367614  0.32213895     0.97800
O57         O  0.13136292  0.60115679  0.28953375    -0.82800
O58         O  0.05577889  0.57341862  0.27119141    -0.85400
C59         C  0.01998255  0.55564799  0.27668413     1.02200
O60         O  0.00404169  0.52633375  0.30192766    -0.78200
O61         O  0.02705493  0.55212989  0.38834912    -0.78400
C62         C  0.04915624  0.56602218  0.42142159     1.02200
Cr63       Cr  0.10973506  0.55816176  0.37684802     1.93700
Cr64       Cr  0.08657600  0.54853291  0.27874363     1.93200
Cr65       Cr  0.02535797  0.50963344  0.35243394     1.39100
O66         O  0.07370034  0.53862136  0.33583492    -1.23500
O67         O  0.42309165  0.19300299  0.09101254    -0.85700
O68         O  0.46130733  0.18587984  0.01891208    -0.82800
C69         C  0.47061880  0.18360136  0.97925614     0.97700
O70         O  0.45930821  0.19613782  0.94730282    -0.82800
O71         O  0.38262205  0.14465272  0.94407106    -0.85400
C72         C  0.34800718  0.12575243  0.95586512     1.02300
O73         O  0.33420894  0.14027644  0.98252596    -0.78200
O74         O  0.36907925  0.14725636  0.06402133    -0.78400
C75         C  0.39528022  0.15903736  0.09285317     1.02200
O76         O  0.43696622  0.26437901  0.05619604    -0.85700
O77         O  0.48262937  0.26163208  0.98964489    -0.82800
C78         C  0.47399420  0.27613571  0.95747037     0.97800
O79         O  0.44175298  0.25760624  0.93910920    -0.82800
O80         O  0.36562794  0.20436513  0.92802873    -0.85400
C81         C  0.34763352  0.21720389  0.95002008     1.02200
O82         O  0.34833063  0.21747205  0.99224809    -0.78200
O83         O  0.37799785  0.22302139  0.07666342    -0.78400
C84         C  0.40735274  0.25650611  0.07847992     1.02200
Cr85       Cr  0.44789837  0.22459615  0.03634436     1.93700
Cr86       Cr  0.41196406  0.20094608  0.94394826     1.93200
Cr87       Cr  0.36071948  0.18337945  0.02722117     1.39100
O88         O  0.40665273  0.20302148  0.00243449    -1.23500
O89         O  0.83601184  0.25642974  0.07149526    -0.85700
O90         O  0.79093070  0.26672360  0.01147992    -0.82800
C91         C  0.81176573  0.28250151  0.97741820     0.97700
O92         O  0.82225816  0.26403038  0.95301017    -0.82800
O93         O  0.84179521  0.21042768  0.92987686    -0.85400
C94         C  0.87228604  0.21918867  0.95088340     1.02300
O95         O  0.87171034  0.21440894  0.99267299    -0.78200
O96         O  0.84868372  0.21003713  0.08059159    -0.78400
C97         C  0.85529617  0.24351996  0.08956345     1.02200
O98         O  0.77303016  0.18291059  0.09572870    -0.85700
O99         O  0.73022198  0.19050334  0.03000224    -0.82800
C100        C  0.71922645  0.19265487  0.99127709     0.97800
O101        O  0.74265837  0.20513697  0.95878304    -0.82800
O102        O  0.76323617  0.15121881  0.94290955    -0.85400
C103        C  0.77784221  0.13044908  0.94845866     1.02200
O104        O  0.80634279  0.14116634  0.97399549    -0.78200
O105        O  0.77823704  0.13937157  0.05828607    -0.78400
C106        C  0.76302190  0.14812050  0.08952801     1.02200
Cr107      Cr  0.78392377  0.22263891  0.04903552     1.93700
Cr108      Cr  0.79310829  0.20730614  0.95064707     1.93200
Cr109      Cr  0.82443102  0.17812412  0.02528740     1.39100
O110        O  0.80066969  0.20286706  0.00818966    -1.23500
O111        O  0.76162485  0.57520824  0.08080463    -0.85700
O112        O  0.71650563  0.53442066  0.00929917    -0.82800
C113        C  0.70608109  0.52350569  0.96963226     0.97700
O114        O  0.73107805  0.53268629  0.93911177    -0.82800
O115        O  0.76027310  0.61016950  0.92954805    -0.85400
C116        C  0.77818880  0.64539793  0.93894731     1.02300
O117        O  0.80595755  0.65879755  0.96612057    -0.78200
O118        O  0.77495456  0.62923635  0.04888343    -0.78400
C119        C  0.75793623  0.60444836  0.07907469     1.02200
O120        O  0.81758727  0.55600101  0.05258540    -0.85700
O121        O  0.76892324  0.50835915  0.98775469    -0.82800
C122        C  0.79247751  0.51438490  0.95643309     0.97800
O123        O  0.80822493  0.54579983  0.93557012    -0.82800
O124        O  0.83584213  0.62184927  0.91770362    -0.85400
C125        C  0.86655259  0.63865780  0.93998026     1.02200
O126        O  0.86520622  0.64043982  0.98205574    -0.78200
O127        O  0.83825595  0.61656917  0.06745165    -0.78400
C128        C  0.84045195  0.58655735  0.07266293     1.02200
Cr129      Cr  0.76781816  0.54646225  0.02991707     1.93700
Cr130      Cr  0.78430161  0.57821325  0.93480069     1.93200
Cr131      Cr  0.81895239  0.63282971  0.01463838     1.39100
O132        O  0.79048112  0.58599550  0.99308611    -1.23500
O133        O  0.75911266  0.85501783  0.75142477    -0.85700
O134        O  0.80114796  0.85866130  0.67749569    -0.82800
C135        C  0.81130389  0.86082055  0.63725084     0.97700
O136        O  0.79781823  0.87283967  0.60738184    -0.82800
O137        O  0.72108334  0.81879397  0.60290117    -0.85400
C138        C  0.68608536  0.79935780  0.61314670     1.02300
O139        O  0.67180531  0.81194900  0.64142572    -0.78200
O140        O  0.70562710  0.81141341  0.72062100    -0.78400
C141        C  0.73178743  0.82074214  0.74904355     1.02200
O142        O  0.76992928  0.92866558  0.72754578    -0.85700
O143        O  0.81760019  0.93538633  0.65933545    -0.82800
C144        C  0.80882808  0.95058240  0.62799995     0.97800
O145        O  0.77777034  0.93165572  0.60739334    -0.82800
O146        O  0.70245243  0.87847599  0.59503257    -0.85400
C147        C  0.68422614  0.88934457  0.61979717     1.02200
O148        O  0.68430296  0.88640066  0.66184537    -0.78200
O149        O  0.71180456  0.88361305  0.74557939    -0.78400
C150        C  0.74040838  0.91688828  0.75141484     1.02200
Cr151      Cr  0.78389905  0.89290325  0.70134312     1.93700
Cr152      Cr  0.74925856  0.87512837  0.60759063     1.93200
Cr153      Cr  0.69687960  0.85007011  0.69069723     1.39100
O154        O  0.74333006  0.87286950  0.66645386    -1.23500
O155        O  0.15891928  0.92004195  0.73028074    -0.85700
O156        O  0.10984981  0.92130821  0.66815480    -0.82800
C157        C  0.13135941  0.93860545  0.63516835     0.97700
O158        O  0.14678313  0.92323920  0.61316029    -0.82800
O159        O  0.17323291  0.87377119  0.59284446    -0.85400
C160        C  0.20406857  0.88620206  0.61459703     1.02300
O161        O  0.20314451  0.88231591  0.65659342    -0.78200
O162        O  0.17750342  0.87843653  0.74331060    -0.78400
C163        C  0.18077610  0.91100364  0.74988160     1.02200
O164        O  0.10129957  0.84447616  0.75754100    -0.85700
O165        O  0.05588570  0.84330698  0.68830963    -0.82800
C166        C  0.04510408  0.84437724  0.64907635     0.97800
O167        O  0.06966354  0.85902906  0.61781812    -0.82800
O168        O  0.09676122  0.81014787  0.60539719    -0.85400
C169        C  0.11333245  0.79151623  0.61357019     1.02200
O170        O  0.14190724  0.80512271  0.63957912    -0.78200
O171        O  0.11236743  0.80325911  0.72344770    -0.78400
C172        C  0.09547102  0.81076507  0.75391305     1.02200
Cr173      Cr  0.10819106  0.88095104  0.70822286     1.93700
Cr174      Cr  0.12228846  0.86636418  0.61168240     1.93200
Cr175      Cr  0.15670023  0.84377081  0.68936262     1.39100
O176        O  0.12920635  0.86373986  0.66965063    -1.23500
O177        O  0.07279552  0.23271155  0.72401173    -0.85700
O178        O  0.06860272  0.18209761  0.66016625    -0.82800
C179        C  0.05350910  0.18864222  0.62686986     0.97700
O180        O  0.07180195  0.21973245  0.60564937    -0.82800
O181        O  0.12575798  0.29517142  0.58964003    -0.85400
C182        C  0.11574813  0.31525986  0.61218496     1.02300
O183        O  0.11893225  0.31710780  0.65424076    -0.78200
O184        O  0.11787369  0.29145394  0.73983805    -0.78400
C185        C  0.08356209  0.26410393  0.74371427     1.02200
O186        O  0.14508109  0.24370181  0.75339295    -0.85700
O187        O  0.14414497  0.19937204  0.68225540    -0.82800
C188        C  0.14343126  0.18833129  0.64255516     0.97800
O189        O  0.13122252  0.20058854  0.61137316    -0.82800
O190        O  0.18477402  0.27618143  0.60221629    -0.85400
C191        C  0.20564095  0.31108244  0.61140383     1.02200
O192        O  0.19375088  0.32703646  0.63847264    -0.78200
O193        O  0.19037304  0.29525157  0.72123215    -0.78400
C194        C  0.17970196  0.27036863  0.75179175     1.02200
Cr195      Cr  0.10926808  0.21751428  0.70225984     1.93700
Cr196      Cr  0.12859536  0.24874336  0.60676951     1.93200
Cr197      Cr  0.15355719  0.30417421  0.68689763     1.39100
O198        O  0.13035211  0.25691604  0.66516479    -1.23500
C199        C  0.11393952  0.02152896  0.62106837    -0.11800
C200        C  0.15123127  0.05212056  0.61404121     0.14800
C201        C  0.18164876  0.04467188  0.60909412     0.01700
C202        C  0.17432934  0.00694634  0.61361705    -0.16100
C203        C  0.13715139  0.97656049  0.62273022    -0.10900
C204        C  0.10649449  0.98398740  0.62480046     0.08400
C205        C  0.15701512  0.09127951  0.61620533     0.09400
S206        S  0.23030419  0.08209863  0.59835675    -0.25200
H207        H  0.19797861  0.00152956  0.61179990     0.19700
S208        S  0.05714127  0.94682623  0.63203107    -0.30900
H209        H  0.09044974  0.02708528  0.62448598     0.10000
C210        C  0.14109515  0.10431052  0.58378676     0.03200
C211        C  0.13919169  0.13741675  0.59215687    -0.13200
C212        C  0.15300743  0.15802705  0.63241290    -0.08900
C213        C  0.17249329  0.14692318  0.66283661     0.06700
C214        C  0.17379100  0.11334991  0.65457357    -0.14000
S215        S  0.12186124  0.07787522  0.53246538    -0.30900
H216        H  0.12503151  0.14603506  0.56806686     0.10900
S217        S  0.19567341  0.17476042  0.71227219    -0.28000
H218        H  0.18637485  0.10319896  0.67899363     0.08100
H219        H  0.06078269  0.92052179  0.60469097     0.26600
H220        H  0.11448217  0.10471370  0.51160407     0.21400
H221        H  0.21235537  0.15323077  0.72622348     0.26700
H222        H  0.22098089  0.10718976  0.57662357     0.15500
C223        C  0.94946414  0.13156451  0.58780524    -0.11800
C224        C  0.94144886  0.09443686  0.59864176     0.14800
C225        C  0.97131278  0.08853991  0.61257967     0.01700
C226        C  0.00756660  0.11997875  0.61962486    -0.16100
C227        C  0.01542889  0.15764318  0.61225646    -0.10900
C228        C  0.98631349  0.16337719  0.59403346     0.08400
C229        C  0.90146078  0.06293651  0.60269739     0.09400
S230        S  0.96418767  0.04171745  0.62559654    -0.25200
H231        H  0.02979807  0.11487733  0.63201508     0.19700
S232        S  0.99313293  0.20978077  0.57948266    -0.30900
H233        H  0.92646308  0.13595228  0.57668043     0.10000
C234        C  0.88392015  0.05299622  0.64524547     0.03200
C235        C  0.85138049  0.01694284  0.65158461    -0.13200
C236        C  0.83600080  0.99075159  0.61618195    -0.08900
C237        C  0.85135817  0.00228781  0.57255949     0.06700
C238        C  0.88403518  0.03842298  0.56625416    -0.14000
S239        S  0.90514031  0.08479882  0.69243353    -0.30900
H240        H  0.83924852  0.00811801  0.68484432     0.10900
S241        S  0.83451057  0.97030693  0.52533518    -0.28000
H242        H  0.89779595  0.04609842  0.53366427     0.08100
H243        H  0.01836391  0.23022086  0.61416817     0.26600
H244        H  0.87629334  0.06240603  0.72379307     0.21400
H245        H  0.79601394  0.95986855  0.53135067     0.26700
H246        H  0.93804416  0.02244419  0.59096546     0.15500
C247        C  0.94052985  0.81612853  0.66452585    -0.11800
C248        C  0.93382709  0.82894789  0.62376781     0.14800
C249        C  0.96144581  0.84076479  0.58928619     0.01700
C250        C  0.99622006  0.84243483  0.59749856    -0.16100
C251        C  0.00453360  0.83275481  0.63965145    -0.10900
C252        C  0.97510355  0.81712412  0.67257414     0.08400
C253        C  0.90098348  0.83540829  0.62099893     0.09400
S254        S  0.95502933  0.85629056  0.53498047    -0.25200
H255        H  0.01769038  0.85341155  0.57116720     0.19700
S256        S  0.97979796  0.79909134  0.72594988    -0.30900
H257        H  0.91924398  0.80673258  0.69102823     0.10000
C258        C  0.86270650  0.80532407  0.62575431     0.03200
C259        C  0.83326161  0.81406853  0.62874369    -0.13200
C260        C  0.84147627  0.85216155  0.62611805    -0.08900
C261        C  0.87958603  0.88196262  0.61928526     0.06700
C262        C  0.90889389  0.87334584  0.61738486    -0.14000
S263        S  0.85147299  0.75603349  0.62837361    -0.30900
H264        H  0.80391805  0.79140890  0.63424398     0.10900
S265        S  0.89299864  0.93180416  0.61709914    -0.28000
H266        H  0.93833128  0.89657085  0.61435527     0.08100
H267        H  0.99777178  0.77987788  0.70795982     0.26600
H268        H  0.81156336  0.73952703  0.63321783     0.21400
H269        H  0.86374383  0.92604154  0.58738504     0.26700
H270        H  0.91475634  0.83463421  0.53532062     0.15500
C271        C  0.78350164  0.73184416  0.88109048    -0.11800
C272        C  0.74486872  0.71794069  0.87101749     0.14800
C273        C  0.71702312  0.68068994  0.88498073     0.01700
C274        C  0.72860887  0.65771508  0.90726191    -0.16100
C275        C  0.76747314  0.67132236  0.91656977    -0.10900
C276        C  0.79515881  0.70901647  0.90322740     0.08400
C277        C  0.73572290  0.74178735  0.84178892     0.09400
S278        S  0.66649476  0.66095197  0.87528003    -0.25200
H279        H  0.70706559  0.62901894  0.91760881     0.19700
S280        S  0.84602085  0.72877478  0.90993689    -0.30900
H281        H  0.80501149  0.76021800  0.86971253     0.10000
C282        C  0.74042534  0.77698940  0.85672884     0.03200
C283        C  0.73802686  0.80184998  0.82587342    -0.13200
C284        C  0.73073759  0.79205651  0.78041237    -0.08900
C285        C  0.72479087  0.75615180  0.76580704     0.06700
C286        C  0.72695427  0.73128155  0.79673967    -0.14000
S287        S  0.74975329  0.79026571  0.91503426    -0.30900
H288        H  0.74234456  0.82928606  0.83699804     0.10900
S289        S  0.71752273  0.74172182  0.70780110    -0.28000
H290        H  0.72389995  0.70443662  0.78515610     0.08100
H291        H  0.84538175  0.69526254  0.89576353     0.26600
H292        H  0.74966696  0.82496547  0.91147308     0.21400
H293        H  0.74354009  0.77822505  0.69042073     0.26700
H294        H  0.66747079  0.69625199  0.87421980     0.15500
C295        C  0.97342021  0.68956743  0.91059293    -0.11800
C296        C  0.97284221  0.70193513  0.86682049     0.14800
C297        C  0.93740443  0.69113228  0.84655456     0.01700
C298        C  0.90345811  0.66954387  0.87091680    -0.16100
C299        C  0.90374977  0.65833730  0.91544357    -0.10900
C300        C  0.93931166  0.66745652  0.93488524     0.08400
C301        C  0.00924012  0.72820944  0.84323373     0.09400
S302        S  0.93531023  0.70669173  0.79037838    -0.25200
H303        H  0.87651532  0.66249433  0.85547203     0.19700
S304        S  0.94320622  0.65105960  0.98971840    -0.30900
H305        H  0.00064643  0.69736359  0.92593746     0.10000
C306        C  0.03061366  0.76726750  0.85485907     0.03200
C307        C  0.06012477  0.79300533  0.82637652    -0.13200
C308        C  0.06842334  0.78082790  0.78578343    -0.08900
C309        C  0.04806951  0.74111793  0.77553275     0.06700
C310        C  0.01935978  0.71531341  0.80476905    -0.14000
S311        S  0.01834657  0.78493700  0.90412309    -0.30900
H312        H  0.07572178  0.82316280  0.83491155     0.10900
S313        S  0.05429554  0.72176449  0.72389121    -0.28000
H314        H  0.00274527  0.68526391  0.79573244     0.08100
H315        H  0.91083471  0.61422528  0.98486365     0.26600
H316        H  0.04814642  0.82330653  0.90044301     0.21400
H317        H  0.04908402  0.74730693  0.69681729     0.26700
H318        H  0.89515348  0.68674556  0.78649141     0.15500
C319        C  0.99112291  0.25057226  0.79325321    -0.11800
C320        C  0.00317538  0.26688954  0.83575505     0.14800
C321        C  0.04257592  0.28560326  0.84631916     0.01700
C322        C  0.06864472  0.28575078  0.81505162    -0.16100
C323        C  0.05622822  0.26794967  0.77318230    -0.10900
C324        C  0.01717594  0.25158110  0.76173020     0.08400
C325        C  0.97320757  0.26009347  0.86918478     0.09400
S326        S  0.06112618  0.30898848  0.89927853    -0.25200
H327        H  0.09860484  0.29878547  0.82402685     0.19700
S328        S  0.99890474  0.23220561  0.70718040    -0.30900
H329        H  0.96096110  0.23637178  0.78478277     0.10000
C330        C  0.94724844  0.27317700  0.86205975     0.03200
C331        C  0.91507210  0.26004237  0.89002208    -0.13200
C332        C  0.90842671  0.23432877  0.92526944    -0.08900
C333        C  0.93547187  0.22265264  0.93352292     0.06700
C334        C  0.96758553  0.23581781  0.90558336    -0.14000
S335        S  0.95513745  0.30662912  0.81740619    -0.30900
H336        H  0.89471982  0.26952730  0.88418628     0.10900
S337        S  0.92921977  0.18865553  0.97657041    -0.28000
H338        H  0.98725277  0.22533930  0.91072890     0.08100
H339        H  0.03172815  0.26036424  0.68449890     0.26600
H340        H  0.92145956  0.30815488  0.82422617     0.21400
H341        H  0.88995750  0.16395348  0.96830447     0.26700
H342        H  0.03208951  0.31769158  0.90773859     0.15500
C343        C  0.77271816  0.99295969  0.84121579    -0.11800
C344        C  0.73916394  0.99426999  0.84879641     0.14800
C345        C  0.70522353  0.96829749  0.82617453     0.01700
C346        C  0.70599032  0.94249050  0.79541699    -0.16100
C347        C  0.73991404  0.94189983  0.78703770    -0.10900
C348        C  0.77333448  0.96672385  0.81143359     0.08400
C349        C  0.74220576  0.02569165  0.87709614     0.09400
S350        S  0.66044213  0.96717303  0.83447917    -0.25200
H351        H  0.68016653  0.92339282  0.77712052     0.19700
S352        S  0.81754891  0.96606661  0.80692241    -0.30900
H353        H  0.79886616  0.01289987  0.85845278     0.10000
C354        C  0.75349024  0.02927363  0.92223154     0.03200
C355        C  0.76386511  0.06340144  0.94511531    -0.13200
C356        C  0.76286561  0.09393945  0.92391792    -0.08900
C357        C  0.74965146  0.08939145  0.87925690     0.06700
C358        C  0.73921549  0.05525820  0.85656644    -0.14000
S359        S  0.75526373  0.99061163  0.95044288    -0.30900
H360        H  0.77356072  0.06664718  0.97941372     0.10900
S361        S  0.74893378  0.12707812  0.84771020    -0.28000
H362        H  0.73104108  0.05268172  0.82166302     0.08100
H363        H  0.79965077  0.92590311  0.80344308     0.26600
H364        H  0.76448505  0.00760072  0.99311578     0.21400
H365        H  0.78565944  0.15573345  0.86137070     0.26700
H366        H  0.66783824  0.98121584  0.87857375     0.15500
C367        C  0.78036404  0.41659043  0.93714735    -0.11800
C368        C  0.81831596  0.42485223  0.94116897     0.14800
C369        C  0.84824405  0.46341006  0.94376534     0.01700
C370        C  0.83928017  0.49268509  0.94551244    -0.16100
C371        C  0.80102790  0.48410075  0.94472263    -0.10900
C372        C  0.77141579  0.44575305  0.93867318     0.08400
C373        C  0.82444492  0.39235334  0.94978509     0.09400
S374        S  0.89789890  0.47668152  0.94844297    -0.25200
H375        H  0.86211730  0.52209698  0.95014333     0.19700
S376        S  0.72161930  0.43216983  0.93419705    -0.30900
H377        H  0.75735783  0.38699385  0.93493016     0.10000
C378        C  0.82573634  0.38111601  0.99404255     0.03200
C379        C  0.82435376  0.34626803  0.00179726    -0.13200
C380        C  0.82181839  0.32229568  0.96620680    -0.08900
C381        C  0.82359147  0.33524120  0.92167245     0.06700
C382        C  0.82411628  0.36974943  0.91399083    -0.14000
S383        S  0.82610924  0.40972951  0.04084704    -0.30900
H384        H  0.82350011  0.33679887  0.03592013     0.10900
S385        S  0.82177166  0.30767538  0.87340664    -0.28000
H386        H  0.82312549  0.37851210  0.87996513     0.08100
H387        H  0.72864569  0.46616431  0.91281563     0.26600
H388        H  0.82967061  0.38753014  0.07471239     0.21400
H389        H  0.85446705  0.30615923  0.88617188     0.26700
H390        H  0.89430729  0.44415638  0.92668859     0.15500
C391        C  0.26954752  0.28272533  0.80936869    -0.11800
C392        C  0.25347746  0.26024747  0.84785964     0.14800
C393        C  0.21430063  0.24510172  0.85717072     0.01700
C394        C  0.19140356  0.25065066  0.82633637    -0.16100
C395        C  0.20685932  0.27140916  0.78625177    -0.10900
C396        C  0.24693252  0.28891801  0.77886618     0.08400
C397        C  0.27715971  0.24922726  0.87483723     0.09400
S398        S  0.19298030  0.21668101  0.90697910    -0.25200
H399        H  0.16098416  0.23757315  0.83285680     0.19700
S400        S  0.27071254  0.31690656  0.72976934    -0.30900
H401        H  0.29975594  0.29445694  0.80230573     0.10000
C402        C  0.28333345  0.21962727  0.86022408     0.03200
C403        C  0.30651952  0.21014222  0.88542668    -0.13200
C404        C  0.32387037  0.22956258  0.92529199    -0.08900
C405        C  0.31762395  0.25937663  0.93993423     0.06700
C406        C  0.29404940  0.26861564  0.91479057    -0.14000
S407        S  0.26105491  0.19333690  0.80967568    -0.30900
H408        H  0.31075116  0.18704135  0.87426935     0.10900
S409        S  0.34027121  0.28792044  0.98888697    -0.28000
H410        H  0.28948161  0.29153698  0.92587494     0.08100
H411        H  0.25891745  0.34372882  0.73809237     0.26600
H412        H  0.27698230  0.16938321  0.81041296     0.21400
H413        H  0.37569372  0.29010318  0.98120482     0.26700
H414        H  0.15669423  0.21309793  0.90218959     0.15500
C415        C  0.31416814  0.03417402  0.88896878    -0.11800
C416        C  0.27674135  0.02501008  0.87862857     0.14800
C417        C  0.26130137  0.04595700  0.89875793     0.01700
C418        C  0.28447470  0.07724515  0.92622893    -0.16100
C419        C  0.32279914  0.08801503  0.93460763    -0.10900
C420        C  0.33714747  0.06499030  0.91715589     0.08400
C421        C  0.25547800  0.99548286  0.84425915     0.09400
S422        S  0.21305203  0.03569689  0.88855385    -0.25200
H423        H  0.27293060  0.09439205  0.93938315     0.19700
S424        S  0.38440918  0.07331317  0.92941433    -0.30900
H425        H  0.32582337  0.01766184  0.87420155     0.10000
C426        C  0.25331336  0.00594079  0.79983814     0.03200
C427        C  0.22986482  0.97750374  0.76916403    -0.13200
C428        C  0.20924620  0.93864779  0.78169209    -0.08900
C429        C  0.21337446  0.92811749  0.82557974     0.06700
C430        C  0.23619675  0.95663774  0.85647406    -0.14000
S431        S  0.27993039  0.05560134  0.78246959    -0.30900
H432        H  0.22695448  0.98557016  0.73545746     0.11800
S433        S  0.18739936  0.87929754  0.84521088    -0.28000
H434        H  0.23810512  0.94863156  0.89058388     0.08100
H435        H  0.38466266  0.08549060  0.97362047     0.26600
H436        H  0.27054491  0.04914061  0.73676137     0.21400
H437        H  0.20417301  0.86651184  0.81333586     0.26700
H438        H  0.19709943  0.99631087  0.88019052     0.15500
C439        C  0.56910837  0.36314868  0.93131777    -0.11800
C440        C  0.56015056  0.39219044  0.93675654     0.14800
C441        C  0.52145337  0.38250231  0.94060513     0.01700
C442        C  0.49282518  0.34374077  0.94286388    -0.16100
C443        C  0.50238106  0.31481236  0.94195970    -0.10900
C444        C  0.54065254  0.32464232  0.93366688     0.08400
C445        C  0.59246519  0.43114994  0.94498898     0.09400
S446        S  0.50726470  0.41806299  0.94642239    -0.25200
H447        H  0.46333781  0.33625953  0.94846014     0.19700
S448        S  0.55495219  0.28923881  0.92737260    -0.30900
H449        H  0.59878109  0.37056767  0.92762750     0.10000
C450        C  0.60457934  0.44360562  0.98905152     0.03200
C451        C  0.64064171  0.47602878  0.99613859    -0.13200
C452        C  0.66502946  0.49620343  0.95998631    -0.08900
C453        C  0.65074337  0.48583072  0.91576804     0.06700
C454        C  0.61508785  0.45291065  0.90880653    -0.14000
S455        S  0.57561501  0.41612531  0.03633862    -0.30900
H456        H  0.65078384  0.48404816  0.03009371     0.10900
S457        S  0.67646192  0.51270329  0.86674710    -0.28000
H458        H  0.60539048  0.44347374  0.87493375     0.08100
H459        H  0.52044451  0.26202674  0.90717694     0.26600
H460        H  0.60098218  0.43925579  0.07003108     0.21400
H461        H  0.69086745  0.54867920  0.88748473     0.26700
H462        H  0.53987518  0.44818102  0.92565964     0.15500
C463        C  0.61988017  0.15707405  0.94310780    -0.11800
C464        C  0.60595567  0.17429205  0.97267088     0.14800
C465        C  0.62919692  0.19667119  0.00852372     0.01700
C466        C  0.66518245  0.20055102  0.01472476    -0.16100
C467        C  0.67945108  0.18388827  0.98492015    -0.10900
C468        C  0.65641731  0.16174561  0.94880162     0.08400
C469        C  0.56678297  0.16786179  0.96701899     0.09400
S470        S  0.61510728  0.22203570  0.04678561    -0.25200
H471        H  0.68289492  0.21810040  0.04208426     0.19700
S472        S  0.67142095  0.13754379  0.91022013    -0.30900
H473        H  0.60200623  0.13955089  0.91585601     0.10000
C474        C  0.55767188  0.18506252  0.93181143     0.03200
C475        C  0.52338565  0.18586514  0.93390812    -0.13200
C476        C  0.49866064  0.17076286  0.97110059    -0.08900
C477        C  0.50571393  0.14924867  0.00322817     0.06700
C478        C  0.53973430  0.14827232  0.00091636    -0.14000
S479        S  0.59134553  0.20946544  0.88674680    -0.30900
H480        H  0.51746618  0.20103670  0.90827318     0.10900
S481        S  0.47344600  0.12354996  0.04890577    -0.28000
H482        H  0.54621305  0.13391822  0.02718671     0.08100
H483        H  0.68929008  0.12714811  0.94314149     0.26600
H484        H  0.56905044  0.22145800  0.86338266     0.21400
H485        H  0.43996907  0.11461744  0.02522823     0.26700
H486        H  0.59453411  0.23035693  0.01528350     0.15500
C487        C  0.93594412  0.56294166  0.23124727    -0.11800
C488        C  0.95100829  0.58144656  0.19021541     0.14800
C489        C  0.98999863  0.59538189  0.18023588     0.01700
C490        C  0.01209236  0.58768174  0.20976132    -0.16100
C491        C  0.99657153  0.56736190  0.25004070    -0.10900
C492        C  0.95838469  0.55648539  0.26157088     0.08400
C493        C  0.92472171  0.58441801  0.15829259     0.09400
S494        S  0.01300737  0.62244958  0.13014200    -0.25200
H495        H  0.04146828  0.59695626  0.20052702     0.19700
S496        S  0.93674747  0.53521178  0.31466001    -0.30900
H497        H  0.90628879  0.55322748  0.23959958     0.10000
C498        C  0.91209152  0.56169810  0.11932922     0.03200
C499        C  0.88494736  0.56338813  0.09183605    -0.13200
C500        C  0.86954367  0.58677477  0.10283313    -0.08900
C501        C  0.88204332  0.60914429  0.14230874     0.06700
C502        C  0.90977534  0.60808116  0.16913772    -0.14000
S503        S  0.92920452  0.52929370  0.10557239    -0.30900
H504        H  0.87547343  0.54620550  0.06168968     0.10900
S505        S  0.86193287  0.63742400  0.16219473    -0.28000
H506        H  0.91890966  0.62489979  0.19960972     0.08100
H507        H  0.97004339  0.55868604  0.33950836     0.26600
H508        H  0.90662946  0.51324246  0.06716647     0.21400
H509        H  0.82390996  0.60946112  0.15217424     0.26700
H510        H  0.98898934  0.63793081  0.12439383     0.15500
C511        C  0.94885002  0.30737105  0.15033937    -0.11800
C512        C  0.93600908  0.32352540  0.18280812     0.14800
C513        C  0.89632956  0.30886328  0.18834526     0.01700
C514        C  0.87067655  0.28145146  0.15850904    -0.16100
C515        C  0.88352274  0.26730083  0.12380557    -0.10900
C516        C  0.92289460  0.27919118  0.12086165     0.08400
C517        C  0.96366147  0.36032450  0.20393827     0.09400
S518        S  0.87695261  0.32619852  0.23081085    -0.25200
H519        H  0.84041748  0.27188858  0.16155790     0.19700
S520        S  0.94191998  0.26221644  0.07779885    -0.30900
H521        H  0.97931442  0.31861260  0.14594453     0.10000
C522        C  0.98306151  0.36227575  0.24375257     0.03200
C523        C  0.00334352  0.39750548  0.26632310    -0.13200
C524        C  0.00470318  0.43073303  0.24951722    -0.08900
C525        C  0.98640874  0.42873326  0.20849511     0.06700
C526        C  0.96658935  0.39377659  0.18605750    -0.14000
S527        S  0.98027708  0.31962932  0.26679140    -0.30900
H528        H  0.01772450  0.39913058  0.29745410     0.10900
S529        S  0.98424577  0.46870496  0.18484767    -0.28000
H530        H  0.95137170  0.39211649  0.15555709     0.08100
H531        H  0.92168476  0.26777614  0.04330545     0.26600
H532        H  0.00398166  0.33746197  0.30393680     0.21400
H533        H  0.97585270  0.48006840  0.22584643     0.26700
H534        H  0.90595931  0.33515399  0.26236479     0.15500
C535        C  0.06127288  0.62141539  0.52774598    -0.11800
C536        C  0.05741708  0.65183230  0.51148701     0.14800
C537        C  0.04428988  0.65017297  0.46722720     0.01700
C538        C  0.03755394  0.61929420  0.43958041    -0.16100
C539        C  0.04457897  0.59051897  0.45480765    -0.10900
C540        C  0.05452340  0.59064513  0.50019713     0.08400
C541        C  0.07074144  0.68615737  0.54019022     0.09400
S542        S  0.03782085  0.68746047  0.44299316    -0.25200
H543        H  0.02987671  0.61946997  0.40489635     0.19700
S544        S  0.05975017  0.55269924  0.52470319    -0.30900
H545        H  0.07058945  0.62216810  0.56190418     0.10000
C546        C  0.04517128  0.69524446  0.56150368     0.03200
C547        C  0.05983738  0.72935849  0.58627267    -0.13200
C548        C  0.09958013  0.75414173  0.59104742    -0.08900
C549        C  0.12497788  0.74398609  0.57101271     0.06700
C550        C  0.11032819  0.71039344  0.54567442    -0.14000
S551        S  0.99404855  0.66343898  0.55711402    -0.30900
H552        H  0.04029317  0.73695893  0.60181960     0.10900
S553        S  0.17625902  0.77436839  0.57323797    -0.28000
H554        H  0.13002847  0.70336299  0.52933779     0.08100
H555        H  0.03294045  0.52369707  0.49653922     0.26600
H556        H  0.98325760  0.68464932  0.58478295     0.21400
H557        H  0.17742816  0.77048897  0.61993832     0.26700
H558        H  0.06634230  0.71812674  0.46768410     0.15500
C559        C  0.08712285  0.40852644  0.46023012    -0.11800
C560        C  0.06857358  0.40102667  0.50192392     0.14800
C561        C  0.04633956  0.41804077  0.51233879     0.01700
C562        C  0.04446463  0.44333121  0.48161038    -0.16100
C563        C  0.06427981  0.45192594  0.44057971    -0.10900
C564        C  0.08494922  0.43340228  0.42932205     0.08400
C565        C  0.07534260  0.37716055  0.53418854     0.09400
S566        S  0.02035756  0.40917649  0.56437230    -0.25200
H567        H  0.02842756  0.45729438  0.49039685     0.19700
S568        S  0.10798676  0.44056217  0.37522440    -0.30900
H569        H  0.10388958  0.39517745  0.45227989     0.10000
C570        C  0.06338255  0.33854331  0.52471764     0.03200
C571        C  0.07618151  0.31885586  0.55162040    -0.13200
C572        C  0.10069782  0.33686091  0.58801543    -0.08900
C573        C  0.11134487  0.37513470  0.59857621     0.06700
C574        C  0.09831888  0.39471281  0.57178656    -0.14000
S575        S  0.03200071  0.31441660  0.47808185    -0.30900
H576        H  0.06748987  0.28936553  0.54392540     0.10900
S577        S  0.14391190  0.40161871  0.64322159    -0.28000
H578        H  0.10792807  0.42455511  0.57879268     0.08100
H579        H  0.12488900  0.41801430  0.38301092     0.26600
H580        H  0.03089241  0.27921899  0.48298774     0.21400
H581        H  0.16910726  0.38788446  0.63444928     0.26700
H582        H  0.01473493  0.37227853  0.57166624     0.15500
C583        C  0.41525028  0.12330610  0.20089899    -0.11800
C584        C  0.40896302  0.08734387  0.18735826     0.14800
C585        C  0.39383451  0.07343452  0.14438905     0.01700
C586        C  0.38640738  0.09617966  0.11551096    -0.16100
C587        C  0.39491523  0.13314478  0.12799720    -0.10900
C588        C  0.40824086  0.14624282  0.17184534     0.08400
C589        C  0.41906006  0.06521352  0.21826457     0.09400
S590        S  0.38537480  0.02788851  0.12351488    -0.25200
H591        H  0.37643149  0.08597988  0.08190050     0.19700
S592        S  0.41654539  0.19173041  0.19279017    -0.30900
H593        H  0.42612812  0.13373126  0.23418584     0.10000
C594        C  0.45762967  0.07612196  0.22604112     0.03200
C595        C  0.46600682  0.05249585  0.25222756    -0.13200
C596        C  0.43659897  0.01811519  0.27070657    -0.08900
C597        C  0.39803335  0.00853012  0.26509309     0.06700
C598        C  0.38968849  0.03193367  0.23854768    -0.14000
S599        S  0.49613817  0.11865611  0.20002434    -0.30900
H600        H  0.49554663  0.05980776  0.25636943     0.10900
S601        S  0.35834550  0.96721937  0.29129392    -0.28000
H602        H  0.36007092  0.02399505  0.23326117     0.08100
H603        H  0.38790890  0.19243269  0.16688579     0.26600
H604        H  0.52646018  0.11706740  0.22087308     0.21400
H605        H  0.37865333  0.96785085  0.32975118     0.26700
H606        H  0.41637440  0.02853189  0.14551426     0.15500
C607        C  0.67687695  0.05556822  0.13303184    -0.11800
C608        C  0.66938263  0.06871313  0.17313470     0.14800
C609        C  0.69465565  0.10652127  0.18730616     0.01700
C610        C  0.72629260  0.13062944  0.16073148    -0.16100
C611        C  0.73303578  0.11849919  0.11924063    -0.10900
C612        C  0.70828277  0.07999684  0.10568260     0.08400
C613        C  0.63386230  0.04335521  0.19837074     0.09400
S614        S  0.68734300  0.12627758  0.23810870    -0.25200
H615        H  0.74498014  0.15984143  0.17186809     0.19700
S616        S  0.71433314  0.06210904  0.05256162    -0.30900
H617        H  0.65714120  0.02643889  0.12249807     0.10000
C618        C  0.59844414  0.03860196  0.18460356     0.03200
C619        C  0.56587434  0.01724956  0.21138005    -0.13200
C620        C  0.56789899  0.00066208  0.25193161    -0.08900
C621        C  0.60330237  0.00438528  0.26475727     0.06700
C622        C  0.63592824  0.02601472  0.23810134    -0.14000
S623        S  0.59521052  0.06170316  0.13429597    -0.30900
H624        H  0.53891114  0.01459951  0.20141690     0.10900
S625        S  0.60853969  0.98147930  0.31381906    -0.28000
H626        H  0.66319522  0.02954226  0.24845202     0.08100
H627        H  0.68425601  0.02401452  0.05773473     0.26600
H628        H  0.55585849  0.04908407  0.13762243     0.21400
H629        H  0.57288266  0.94768743  0.30878701     0.26700
H630        H  0.64710480  0.10655823  0.23639457     0.15500
C631        C  0.37111252  0.93168448  0.53092894    -0.11800
C632        C  0.34635163  0.94384456  0.51511542     0.14800
C633        C  0.35576362  0.96534541  0.47494379     0.01700
C634        C  0.38697995  0.97023271  0.44909161    -0.16100
C635        C  0.40980634  0.95503214  0.46301502    -0.10900
C636        C  0.40303563  0.93767169  0.50585085     0.08400
C637        C  0.30964826  0.93085006  0.53948349     0.09400
S638        S  0.32818292  0.98580246  0.45390582    -0.25200
H639        H  0.39218950  0.98427623  0.41679293     0.19700
S640        S  0.43378238  0.92222014  0.53026855    -0.30900
H641        H  0.36485195  0.91633986  0.56247922     0.10000
C642        C  0.27429629  0.90324754  0.52090689     0.03200
C643        C  0.24053454  0.88985729  0.54602956    -0.13200
C644        C  0.24096899  0.90328523  0.58958531    -0.08900
C645        C  0.27636926  0.93171492  0.60770012     0.06700
C646        C  0.31027679  0.94457109  0.58285251    -0.14000
S647        S  0.27198746  0.88384094  0.46576031    -0.30900
H648        H  0.21362454  0.86812358  0.53191191     0.10900
S649        S  0.28012833  0.95394788  0.66125649    -0.28000
H650        H  0.33735165  0.96590318  0.59713967     0.08100
H651        H  0.46756815  0.95080662  0.50952372     0.26600
H652        H  0.23270102  0.85619206  0.46639406     0.21400
H653        H  0.24649215  0.95582071  0.65618476     0.26700
H654        H  0.31323733  0.98833783  0.49553462     0.15500
C655        C  0.57494764  0.89709662  0.47643470    -0.11800
C656        C  0.58780606  0.92229260  0.51283611     0.14800
C657        C  0.57901239  0.95191410  0.51532153     0.01700
C658        C  0.55657464  0.95487158  0.48177031    -0.16100
C659        C  0.54288137  0.92912415  0.44558645    -0.10900
C660        C  0.55319466  0.90044697  0.44254164     0.08400
C661        C  0.61217576  0.91769634  0.54572700     0.09400
S662        S  0.59451014  0.98644534  0.56033086    -0.25200
H663        H  0.54885037  0.97688027  0.48473916     0.19700
S664        S  0.54079323  0.86788594  0.39599277    -0.30900
H665        H  0.58260503  0.87497898  0.47403548     0.10000
C666        C  0.59635099  0.88909716  0.57908499     0.03200
C667        C  0.62081454  0.88216322  0.60551917    -0.13200
C668        C  0.66055794  0.90284504  0.59834435    -0.08900
C669        C  0.67635408  0.93266447  0.56636336     0.06700
C670        C  0.65194878  0.93982837  0.54034820    -0.14000
S671        S  0.54504683  0.86054806  0.58656310    -0.30900
H672        H  0.60893692  0.85922852  0.63006255     0.10900
S673        S  0.72754239  0.96166812  0.55863267    -0.28000
H674        H  0.66364618  0.96184434  0.51470165     0.08100
H675        H  0.54655423  0.89543063  0.36341308     0.26600
H676        H  0.54543969  0.83632818  0.62016008     0.21400
H677        H  0.72688935  0.98429704  0.52322267     0.26700
H678        H  0.61220420  0.97174246  0.58769928     0.15500
C679        C  0.27243033  0.79577794  0.35668317    -0.11800
C680        C  0.25862340  0.78070956  0.31422294     0.14800
C681        C  0.27951830  0.80101393  0.27588318     0.01700
C682        C  0.31651486  0.83237240  0.28096145    -0.16100
C683        C  0.33249737  0.84483563  0.32371198    -0.10900
C684        C  0.30866629  0.82803522  0.36194819     0.08400
C685        C  0.22621506  0.74097333  0.31180866     0.09400
S686        S  0.26154875  0.78656078  0.21980218    -0.25200
H687        H  0.33349447  0.84586805  0.25121765     0.19700
S688        S  0.32319153  0.84372401  0.41870561    -0.30900
H689        H  0.25582141  0.78088349  0.38618607     0.10000
C690        C  0.23201226  0.71121705  0.29640832     0.03200
C691        C  0.20165865  0.67342489  0.29801421    -0.13200
C692        C  0.16620396  0.66444591  0.31662533    -0.08900
C693        C  0.16042341  0.69406404  0.33256314     0.06700
C694        C  0.19052246  0.73210143  0.32986552    -0.14000
S695        S  0.27890650  0.72056613  0.27889582    -0.30900
H696        H  0.20617831  0.65040544  0.28712014     0.10900
S697        S  0.11567755  0.68520557  0.35676871    -0.28000
H698        H  0.18637222  0.75489776  0.34257757     0.08100
H699        H  0.33685608  0.88260937  0.40860580     0.26600
H700        H  0.26778620  0.68298260  0.26545490     0.21400
H701        H  0.09208940  0.65201384  0.33178028     0.26700
H702        H  0.22254258  0.76608573  0.23188210     0.15500
C703        C  0.61886494  0.55339155  0.21468790    -0.11800
C704        C  0.64528207  0.59226502  0.20666022     0.14800
C705        C  0.63760976  0.62036729  0.22366996     0.01700
C706        C  0.60318600  0.60894562  0.24673998    -0.16100
C707        C  0.57647653  0.56996868  0.25424869    -0.10900
C708        C  0.58470687  0.54193576  0.23804197     0.08400
C709        C  0.67851246  0.60180254  0.17700233     0.09400
S710        S  0.67066975  0.67108649  0.21739345    -0.25200
H711        H  0.59737966  0.63069561  0.25937162     0.19700
S712        S  0.55175669  0.49106447  0.24301475    -0.30900
H713        H  0.62427461  0.53164887  0.20108506     0.10000
C714        C  0.70624005  0.59205455  0.18886518     0.03200
C715        C  0.73320528  0.59525093  0.15685804    -0.13200
C716        C  0.73365893  0.60874816  0.11331222    -0.08900
C717        C  0.70756746  0.62117631  0.10264167     0.06700
C718        C  0.68001717  0.61706115  0.13430716    -0.14000
S719        S  0.70688217  0.57493003  0.24457948    -0.30900
H720        H  0.75339546  0.58612659  0.16538768     0.10900
S721        S  0.70535879  0.63866067  0.04792786    -0.28000
H722        H  0.65865466  0.62447844  0.12503364     0.08100
H723        H  0.51960758  0.49350728  0.23030523     0.26600
H724        H  0.73961223  0.57156729  0.23857283     0.21400
H725        H  0.74349456  0.66919072  0.04933474     0.26700
H726        H  0.70402939  0.66843041  0.21540211     0.15500
C727        C  0.43679616  0.35140166  0.13659324    -0.11800
C728        C  0.41232383  0.33906974  0.17384488     0.14800
C729        C  0.38476328  0.29978431  0.17856814     0.01700
C730        C  0.38323643  0.27362898  0.14655683    -0.16100
C731        C  0.40808136  0.28583724  0.10923340    -0.10900
C732        C  0.43465329  0.32561170  0.10403775     0.08400
C733        C  0.41603469  0.36872287  0.20573179     0.09400
S734        S  0.35109146  0.28102957  0.22460877    -0.25200
H735        H  0.36271715  0.24341225  0.15122780     0.19700
S736        S  0.46580821  0.34602419  0.05614314    -0.30900
H737        H  0.45746215  0.38168509  0.13250020     0.10000
C738        C  0.43548280  0.37512807  0.24671909     0.03200
C739        C  0.44285093  0.40714774  0.27269764    -0.13200
C740        C  0.43153575  0.43302606  0.25802937    -0.08900
C741        C  0.41013179  0.42506553  0.21817168     0.06700
C742        C  0.40305794  0.39340322  0.19227855    -0.14000
S743        S  0.45313135  0.34408866  0.26431874    -0.30900
H744        H  0.45937008  0.41326604  0.30313212     0.10900
S745        S  0.39080631  0.45406499  0.19883960    -0.28000
H746        H  0.38779649  0.38823330  0.16094153     0.08100
H747        H  0.43722378  0.32301698  0.02522248     0.26600
H748        H  0.46994782  0.36332013  0.30450001     0.21400
H749        H  0.37963057  0.45863074  0.24199322     0.26700
H750        H  0.35155067  0.31509970  0.23548151     0.15500
C751        C  0.60708809  0.66530195  0.46502686    -0.11800
C752        C  0.59626038  0.66225853  0.51022542     0.14800
C753        C  0.56159160  0.63026618  0.52485075     0.01700
C754        C  0.53755136  0.60321244  0.49359206    -0.16100
C755        C  0.54770410  0.60698961  0.44811731    -0.10900
C756        C  0.58313857  0.63811106  0.43375736     0.08400
C757        C  0.61889153  0.69542072  0.53962657     0.09400
S758        S  0.54591950  0.62301793  0.58253891    -0.25200
H759        H  0.51034448  0.57932182  0.50469002     0.19700
S760        S  0.59799032  0.64662072  0.37578591    -0.30900
H761        H  0.63336883  0.69022372  0.45361133     0.10000
C762        C  0.65730359  0.70780955  0.55018616     0.03200
C763        C  0.67827979  0.74131008  0.57534278    -0.13200
C764        C  0.66153424  0.76256409  0.59028784    -0.08900
C765        C  0.62262772  0.74941908  0.58026927     0.06700
C766        C  0.60197192  0.71627709  0.55484194    -0.14000
S767        S  0.67951267  0.68093609  0.53176316    -0.30900
H768        H  0.70798266  0.75120308  0.58312283     0.10900
S769        S  0.59856563  0.77517406  0.59537623    -0.28000
H770        H  0.57256515  0.70701804  0.54599124     0.08100
H771        H  0.56161369  0.63567006  0.35846701     0.26600
H772        H  0.71526535  0.70428964  0.55210954     0.21400
H773        H  0.59950740  0.76839314  0.64145842     0.26700
H774        H  0.58276555  0.64325191  0.60127366     0.15500
C775        C  0.28540942  0.34981873  0.52381101    -0.11800
C776        C  0.31066673  0.38622423  0.54122459     0.14800
C777        C  0.30351409  0.39568929  0.58437878     0.01700
C778        C  0.26973684  0.37015986  0.60706421    -0.16100
C779        C  0.24341659  0.33428924  0.58878189    -0.10900
C780        C  0.25282391  0.32334214  0.54758899     0.08400
C781        C  0.34095918  0.41515344  0.51135910     0.09400
S782        S  0.33602207  0.44010283  0.61202609    -0.25200
H783        H  0.26385653  0.37864363  0.63920586     0.19700
S784        S  0.22391981  0.27710405  0.52186987    -0.30900
H785        H  0.29053798  0.34225841  0.49071505     0.10000
C786        C  0.36866607  0.40890564  0.49020252     0.03200
C787        C  0.39460423  0.43620268  0.45963477    -0.13200
C788        C  0.39370372  0.46980851  0.44997310    -0.08900
C789        C  0.36690716  0.47661294  0.47280993     0.06700
C790        C  0.34036982  0.44888345  0.50205110    -0.14000
S791        S  0.37175064  0.36675190  0.50266439    -0.30900
H792        H  0.41539722  0.43112462  0.44276540     0.10900
S793        S  0.36587917  0.52061666  0.46797367    -0.28000
H794        H  0.31911696  0.45381551  0.51806123     0.08100
H795        H  0.22598225  0.25704796  0.55933726     0.26600
H796        H  0.39900771  0.37253984  0.46948961     0.21400
H797        H  0.40601905  0.54440818  0.46860325     0.26700
H798        H  0.36931760  0.44524703  0.59045079     0.15500
C799        C  0.49691034  0.71934690  0.25304139    -0.11800
C800        C  0.49673704  0.73989290  0.29078325     0.14800
C801        C  0.49982417  0.72722465  0.33369807     0.01700
C802        C  0.49941192  0.69261030  0.33830666    -0.16100
C803        C  0.49632834  0.67003208  0.30086989    -0.10900
C804        C  0.49765298  0.68512384  0.25752440     0.08400
C805        C  0.48724962  0.77059734  0.28551713     0.09400
S806        S  0.50092973  0.75226616  0.38417704    -0.25200
H807        H  0.49938148  0.68236629  0.37184711     0.19700
S808        S  0.49982394  0.66221580  0.20670064    -0.30900
H809        H  0.49528751  0.72943436  0.21994853     0.10000
C810        C  0.51560648  0.80946668  0.28021743     0.03200
C811        C  0.50499721  0.83769418  0.28198645    -0.13200
C812        C  0.46660811  0.82757024  0.28917891    -0.08900
C813        C  0.43804340  0.78837819  0.29079096     0.06700
C814        C  0.44868759  0.76041688  0.28938728    -0.14000
S815        S  0.56539542  0.82312291  0.27464463    -0.30900
H816        H  0.52685966  0.86774449  0.28061909     0.10900
S817        S  0.38759104  0.77226103  0.29501501    -0.28000
H818        H  0.42680271  0.73043643  0.29250152     0.08100
H819        H  0.52469006  0.65072497  0.22448856     0.26600
H820        H  0.57994492  0.86286398  0.27097713     0.21400
H821        H  0.38973038  0.80362916  0.27183347     0.26700
H822        H  0.52238487  0.78913637  0.36563383     0.15500
C823        C  0.21216980  0.49933396  0.26934483    -0.11800
C824        C  0.24779022  0.52860223  0.28464289     0.14800
C825        C  0.25076411  0.56186698  0.30389435     0.01700
C826        C  0.21815451  0.56500019  0.30795920    -0.16100
C827        C  0.18204463  0.53534880  0.29412508    -0.10900
C828        C  0.17929739  0.50247790  0.27349375     0.08400
C829        C  0.28174597  0.52427408  0.28072117     0.09400
S830        S  0.29515619  0.60107021  0.32494258    -0.25200
H831        H  0.22099309  0.59068925  0.32315814     0.19700
S832        S  0.13474351  0.46296296  0.25395102    -0.30900
H833        H  0.20999178  0.47386964  0.25434942     0.10000
C834        C  0.28811636  0.50174521  0.31164920     0.03200
C835        C  0.32433737  0.50517740  0.31344275    -0.13200
C836        C  0.35397698  0.53061225  0.28492316    -0.08900
C837        C  0.34681147  0.55127528  0.25211597     0.06700
C838        C  0.31067661  0.54780864  0.25028461    -0.14000
S839        S  0.25152514  0.47178915  0.35179717    -0.30900
H840        H  0.33040052  0.48992469  0.33895771     0.10900
S841        S  0.38365980  0.58569404  0.21531471    -0.28000
H842        H  0.30576107  0.56537601  0.22686844     0.08100
H843        H  0.12895804  0.48572724  0.22286697     0.26600
H844        H  0.27272926  0.45770400  0.37362709     0.21400
H845        H  0.40439741  0.56646054  0.21183932     0.26700
H846        H  0.30978762  0.57835565  0.34116601     0.15500
loop_ 
_geom_bond_atom_site_label_1 
_geom_bond_atom_site_label_2 
_geom_bond_distance 
_geom_bond_site_symmetry_2 
_ccdc_geom_bond_type 
O1          Cr19   1.993       .  S
O1            C9   1.261       .  A
O2          Cr19   1.972       .  S
O2            C3   1.260       .  A
C3            O4   1.267       .  A
C3          C803   1.492       .  S
O4          Cr20   2.018       .  S
O5          Cr20   1.978       .  S
O5            C6   1.261       .  A
C6            O7   1.266       .  A
C6          C707   1.480       .  S
O7          Cr21   2.010       .  S
O8          Cr21   1.978       .  S
O8            C9   1.259       .  A
C9          C755   1.464       .  S
O10         Cr19   1.965       .  S
O10          C18   1.258       .  A
O11         Cr19   1.995       .  S
O11          C12   1.261       .  A
C12          O13   1.257       .  A
C12         C836   1.460       .  S
O13         Cr20   1.974       .  S
O14         Cr20   2.006       .  S
O14          C15   1.268       .  A
C15          O16   1.262       .  A
C15         C740   1.478       .  S
O16         Cr21   1.978       .  S
O17         Cr21   2.021       .  S
O17          C18   1.269       .  A
C18         C788   1.481       .  S
Cr19         O22   1.763       .  S
Cr20         O22   1.765       .  S
Cr21         O22   1.770       .  S
O23         Cr41   1.999       .  S
O23          C31   1.262       .  A
O24         Cr41   1.953       .  S
O24          C25   1.252       .  A
C25          O26   1.269       .  A
C25         C683   1.484       .  S
O26         Cr42   2.017       .  S
O27         Cr42   1.973       .  S
O27          C28   1.260       .  A
C28          O29   1.267   1_565  A
C28         C596   1.477   1_565  S
O29         Cr43   2.011   1_545  S
O30         Cr43   1.991       .  S
O30          C31   1.262       .  A
C31         C635   1.484       .  S
O32         Cr41   1.955       .  S
O32          C40   1.257       .  A
O33         Cr41   2.006       .  S
O33          C34   1.265       .  A
C34          O35   1.259       .  A
C34         C812   1.476       .  S
O35         Cr42   1.985       .  S
O36         Cr42   2.002       .  S
O36          C37   1.267       .  A
C37          O38   1.263       .  A
C37         C620   1.481   1_565  S
O38         Cr43   1.982       .  S
O39         Cr43   2.020       .  S
O39          C40   1.271       .  A
C40         C659   1.480       .  S
Cr41         O44   1.760       .  S
Cr42         O44   1.765       .  S
Cr43         O44   1.765       .  S
O45         Cr63   1.960       .  S
O45          C53   1.259       .  A
O46         Cr63   1.995       .  S
O46          C47   1.264       .  A
C47          O48   1.258       .  A
C47         C827   1.479       .  S
O48         Cr64   1.980       .  S
O49         Cr64   2.003       .  S
O49          C50   1.265       .  A
C50          O51   1.261       .  A
C50         C524   1.478       .  S
O51         Cr65   1.981       .  S
O52         Cr65   2.030       .  S
O52          C53   1.272       .  A
C53         C563   1.479       .  S
O54         Cr63   1.994       .  S
O54          C62   1.261       .  A
O55         Cr63   1.972       .  S
O55          C56   1.260       .  A
C56          O57   1.267       .  A
C56         C692   1.464       .  S
O57         Cr64   2.004       .  S
O58         Cr64   1.968       .  S
O58          C59   1.259       .  A
C59          O60   1.269       .  A
C59         C491   1.487   1_455  S
O60         Cr65   2.017       .  S
O61         Cr65   1.995       .  S
O61          C62   1.261       .  A
C62         C539   1.479       .  S
Cr63         O66   1.760       .  S
Cr64         O66   1.766       .  S
Cr65         O66   1.765       .  S
O67         Cr85   1.998       .  S
O67          C75   1.261       .  A
O68         Cr85   1.965       .  S
O68          C69   1.258   1_554  A
C69          O70   1.270       .  A
C69         C476   1.484       .  S
O70         Cr86   2.021       .  S
O71         Cr86   1.963       .  S
O71          C72   1.257       .  A
C72          O73   1.270       .  A
C72         C419   1.484       .  S
O73         Cr87   2.022   1_556  S
O74         Cr87   1.987       .  S
O74          C75   1.260       .  A
C75         C587   1.476       .  S
O76         Cr85   1.959       .  S
O76          C84   1.259       .  A
O77         Cr85   2.004   1_556  S
O77          C78   1.264       .  A
C78          O79   1.257       .  A
C78         C443   1.468       .  S
O79         Cr86   1.980       .  S
O80         Cr86   2.005       .  S
O80          C81   1.267       .  A
C81          O82   1.261       .  A
C81         C404   1.485       .  S
O82         Cr87   1.984   1_556  S
O83         Cr87   2.027       .  S
O83          C84   1.273       .  A
C84         C731   1.487       .  S
Cr85         O88   1.764       .  S
Cr86         O88   1.766   1_556  S
Cr87         O88   1.767       .  S
O89        Cr107   1.964       .  S
O89          C97   1.259       .  A
O90        Cr107   1.999       .  S
O90          C91   1.265   1_554  A
C91          O92   1.258       .  A
C91         C380   1.483       .  S
O92        Cr108   1.979       .  S
O93        Cr108   2.002       .  S
O93          C94   1.266       .  A
C94          O95   1.261       .  A
C94         C332   1.477       .  S
O95        Cr109   1.976   1_556  S
O96        Cr109   2.022       .  S
O96          C97   1.267       .  A
C97         C515   1.474       .  S
O98        Cr107   1.998       .  S
O98         C106   1.264       .  A
O99        Cr107   1.971       .  S
O99         C100   1.259   1_554  A
C100        O101   1.266       .  A
C100        C467   1.474       .  S
O101       Cr108   2.009       .  S
O102       Cr108   1.970       .  S
O102        C103   1.257       .  A
C103        O104   1.265       .  A
C103        C356   1.476       .  S
O104       Cr109   2.004   1_556  S
O105       Cr109   1.985       .  S
O105        C106   1.260       .  A
C106        C611   1.488       .  S
Cr107       O110   1.766       .  S
Cr108       O110   1.771   1_556  S
Cr109       O110   1.776       .  S
O111       Cr129   2.002       .  S
O111        C119   1.263       .  A
O112       Cr129   1.977       .  S
O112        C113   1.262   1_554  A
C113        O114   1.266       .  A
C113        C452   1.486       .  S
O114       Cr130   2.007       .  S
O115       Cr130   1.974       .  S
O115        C116   1.260       .  A
C116        O117   1.267       .  A
C116        C275   1.480       .  S
O117       Cr131   2.009   1_556  S
O118       Cr131   1.988       .  S
O118        C119   1.260       .  A
C119        C716   1.483       .  S
O120       Cr129   1.970       .  S
O120        C128   1.261       .  A
O121       Cr129   2.005   1_556  S
O121        C122   1.264       .  A
C122        O123   1.258       .  A
C122        C371   1.470       .  S
O123       Cr130   1.981       .  S
O124       Cr130   1.997       .  S
O124        C125   1.265       .  A
C125        O126   1.261       .  A
C125        C299   1.487       .  S
O126       Cr131   1.984   1_556  S
O127       Cr131   2.014       .  S
O127        C128   1.268       .  A
C128        C500   1.481       .  S
Cr129       O132   1.764   1_554  S
Cr130       O132   1.765       .  S
Cr131       O132   1.767   1_554  S
O133       Cr151   2.005       .  S
O133        C141   1.264       .  A
O134       Cr151   1.968       .  S
O134        C135   1.257       .  A
C135        O136   1.265       .  A
C135        C260   1.465       .  S
O136       Cr152   2.010       .  S
O137       Cr152   1.969       .  S
O137        C138   1.259       .  A
C138        O139   1.263       .  A
C138        C764   1.475       .  S
O139       Cr153   2.000       .  S
O140       Cr153   1.980       .  S
O140        C141   1.259       .  A
C141        C284   1.473       .  S
O142       Cr151   1.958       .  S
O142        C150   1.256       .  A
O143       Cr151   1.999       .  S
O143        C144   1.265       .  A
C144        O145   1.256       .  A
C144        C236   1.470       .  S
O145       Cr152   1.970       .  S
O146       Cr152   2.000       .  S
O146        C147   1.266       .  A
C147        O148   1.261       .  A
C147        C668   1.468       .  S
O148       Cr153   1.977       .  S
O149       Cr153   2.017       .  S
O149        C150   1.267       .  A
C150        C347   1.473       .  S
Cr151       O154   1.762       .  S
Cr152       O154   1.769       .  S
Cr153       O154   1.772       .  S
O155       Cr173   1.968       .  S
O155        C163   1.259       .  A
O156       Cr173   1.995       .  S
O156        C157   1.262       .  A
C157        O158   1.261       .  A
C157        C203   1.476       .  S
O158       Cr174   1.990       .  S
O159       Cr174   2.003       .  S
O159        C160   1.266       .  A
C160        O161   1.262       .  A
C160        C644   1.486       .  S
O161       Cr175   1.984       .  S
O162       Cr175   2.021       .  S
O162        C163   1.269       .  A
C163        C428   1.478       .  S
O164       Cr173   2.000       .  S
O164        C172   1.263       .  A
O165       Cr173   1.975       .  S
O165        C166   1.260       .  A
C166        O167   1.267       .  A
C166        C251   1.488       .  S
O167       Cr174   2.001       .  S
O168       Cr174   1.972       .  S
O168        C169   1.258       .  A
C169        O170   1.267       .  A
C169        C548   1.481       .  S
O170       Cr175   2.017       .  S
O171       Cr175   1.987       .  S
O171        C172   1.260       .  A
C172        C308   1.490       .  S
Cr173       O176   1.765       .  S
Cr174       O176   1.766       .  S
Cr175       O176   1.772       .  S
O177       Cr195   1.968       .  S
O177        C185   1.260       .  A
O178       Cr195   1.993       .  S
O178        C179   1.264       .  A
C179        O180   1.258       .  A
C179        C227   1.479       .  S
O180       Cr196   1.982       .  S
O181       Cr196   2.002       .  S
O181        C182   1.266       .  A
C182        O183   1.261       .  A
C182        C572   1.480       .  S
O183       Cr197   1.983       .  S
O184       Cr197   2.018       .  S
O184        C185   1.268       .  A
C185        C323   1.477       .  S
O186       Cr195   2.005       .  S
O186        C194   1.264       .  A
O187       Cr195   1.978       .  S
O187        C188   1.262       .  A
C188        O189   1.267       .  A
C188        C212   1.488       .  S
O189       Cr196   2.005       .  S
O190       Cr196   1.964       .  S
O190        C191   1.255       .  A
C191        O192   1.268       .  A
C191        C779   1.487       .  S
O192       Cr197   2.012       .  S
O193       Cr197   1.987       .  S
O193        C194   1.260       .  A
C194        C395   1.493       .  S
Cr195       O198   1.763       .  S
Cr196       O198   1.770       .  S
Cr197       O198   1.772       .  S
C199        C200   1.400       .  A
C199        C204   1.393   1_545  A
C199        H209   1.084       .  S
C200        C205   1.478       .  S
C200        C201   1.412       .  A
C201        C202   1.404       .  A
C201        S206   1.802       .  S
C202        C203   1.404   1_545  A
C202        H207   1.084       .  S
C203        C204   1.415       .  A
C204        S208   1.803       .  S
C205        C210   1.405       .  A
C205        C214   1.401       .  A
S206        H222   1.406       .  S
S208        H219   1.404       .  S
C210        C211   1.399       .  A
C210        S215   1.807       .  S
C211        C212   1.409       .  A
C211        H216   1.082       .  S
C212        C213   1.418       .  A
C213        C214   1.404       .  A
C213        S217   1.808       .  S
C214        H218   1.083       .  S
S215        H220   1.407       .  S
S217        H221   1.406       .  S
C223        C224   1.402       .  A
C223        C228   1.405       .  A
C223        H233   1.084       .  S
C224        C229   1.472       .  S
C224        C225   1.407       .  A
C225        C226   1.388   1_655  A
C225        S230   1.805       .  S
C226        C227   1.405       .  A
C226        H231   1.085       .  S
C227        C228   1.419   1_455  A
C228        S232   1.804       .  S
C229        C234   1.408       .  A
C229        C238   1.401       .  A
S230        H246   1.404       .  S
S232        H243   1.398   1_655  S
C234        C235   1.396       .  A
C234        S239   1.808       .  S
C235        C236   1.402   1_545  A
C235        H240   1.083       .  S
C236        C237   1.414   1_565  A
C237        C238   1.400       .  A
C237        S241   1.800   1_545  S
C238        H242   1.083       .  S
S239        H244   1.407       .  S
S241        H245   1.402       .  S
C247        C248   1.403       .  A
C247        C252   1.399       .  A
C247        H257   1.084       .  S
C248        C253   1.479       .  S
C248        C249   1.409       .  A
C249        C250   1.395       .  A
C249        S254   1.805       .  S
C250        C251   1.409   1_655  A
C250        H255   1.083   1_655  S
C251        C252   1.418   1_455  A
C252        S256   1.802       .  S
C253        C258   1.411       .  A
C253        C262   1.402       .  A
S254        H270   1.406       .  S
S256        H267   1.408       .  S
C258        C259   1.404       .  A
C258        S263   1.806       .  S
C259        C260   1.402       .  A
C259        H264   1.083       .  S
C260        C261   1.410       .  A
C261        C262   1.394       .  A
C261        S265   1.802       .  S
C262        H266   1.084       .  S
S263        H268   1.407       .  S
S265        H269   1.404       .  S
C271        C272   1.401       .  A
C271        C276   1.396       .  A
C271        H281   1.084       .  S
C272        C277   1.479       .  S
C272        C273   1.411       .  A
C273        C274   1.401       .  A
C273        S278   1.803       .  S
C274        C275   1.407       .  A
C274        H279   1.084       .  S
C275        C276   1.416       .  A
C276        S280   1.803       .  S
C277        C282   1.408       .  A
C277        C286   1.403       .  A
S278        H294   1.406       .  S
S280        H291   1.405       .  S
C282        C283   1.402       .  A
C282        S287   1.806       .  S
C283        C284   1.404       .  A
C283        H288   1.083       .  S
C284        C285   1.414       .  A
C285        C286   1.400       .  A
C285        S289   1.805       .  S
C286        H290   1.084       .  S
S287        H292   1.407       .  S
S289        H293   1.406       .  S
C295        C296   1.404       .  A
C295        C300   1.404       .  A
C295        H305   1.084   1_655  S
C296        C301   1.483   1_655  S
C296        C297   1.409       .  A
C297        C298   1.398       .  A
C297        S302   1.809       .  S
C298        C299   1.407       .  A
C298        H303   1.082       .  S
C299        C300   1.418       .  A
C300        S304   1.803       .  S
C301        C306   1.408       .  A
C301        C310   1.403       .  A
S302        H318   1.406       .  S
S304        H315   1.408       .  S
C306        C307   1.402       .  A
C306        S311   1.808       .  S
C307        C308   1.409       .  A
C307        H312   1.082       .  S
C308        C309   1.418       .  A
C309        C310   1.402       .  A
C309        S313   1.802       .  S
C310        H314   1.084       .  S
S311        H316   1.406       .  S
S313        H317   1.408       .  S
C319        C320   1.401   1_655  A
C319        C324   1.394   1_655  A
C319        H329   1.084       .  S
C320        C325   1.480   1_455  S
C320        C321   1.413       .  A
C321        C322   1.402       .  A
C321        S326   1.803       .  S
C322        C323   1.405       .  A
C322        H327   1.084       .  S
C323        C324   1.413       .  A
C324        S328   1.799   1_455  S
C325        C330   1.409       .  A
C325        C334   1.402       .  A
S326        H342   1.406       .  S
S328        H339   1.407   1_655  S
C330        C331   1.401       .  A
C330        S335   1.807       .  S
C331        C332   1.405       .  A
C331        H336   1.083       .  S
C332        C333   1.414       .  A
C333        C334   1.399       .  A
C333        S337   1.802       .  S
C334        H338   1.084       .  S
S335        H340   1.407       .  S
S337        H341   1.407       .  S
C343        C344   1.401       .  A
C343        C348   1.393       .  A
C343        H353   1.084   1_565  S
C344        C349   1.477   1_565  S
C344        C345   1.412       .  A
C345        C346   1.401       .  A
C345        S350   1.803       .  S
C346        C347   1.404       .  A
C346        H351   1.084       .  S
C347        C348   1.415       .  A
C348        S352   1.805       .  S
C349        C354   1.409       .  A
C349        C358   1.401       .  A
S350        H366   1.406       .  S
S352        H363   1.407       .  S
C354        C355   1.400       .  A
C354        S359   1.807   1_545  S
C355        C356   1.405       .  A
C355        H360   1.082       .  S
C356        C357   1.416       .  A
C357        C358   1.397       .  A
C357        S361   1.802       .  S
C358        H362   1.084       .  S
S359        H364   1.407   1_565  S
S361        H365   1.407       .  S
C367        C368   1.401       .  A
C367        C372   1.396       .  A
C367        H377   1.084       .  S
C368        C373   1.476       .  S
C368        C369   1.412       .  A
C369        C370   1.401       .  A
C369        S374   1.803       .  S
C370        C371   1.403       .  A
C370        H375   1.084       .  S
C371        C372   1.412       .  A
C372        S376   1.805       .  S
C373        C378   1.407       .  A
C373        C382   1.401       .  A
S374        H390   1.406       .  S
S376        H387   1.406       .  S
C378        C379   1.399   1_556  A
C378        S383   1.808   1_556  S
C379        C380   1.406   1_554  A
C379        H384   1.083       .  S
C380        C381   1.417       .  A
C381        C382   1.402       .  A
C381        S385   1.800       .  S
C382        H386   1.083       .  S
S383        H388   1.407       .  S
S385        H389   1.407       .  S
C391        C392   1.402       .  A
C391        C396   1.402       .  A
C391        H401   1.083       .  S
C392        C397   1.483       .  S
C392        C393   1.406       .  A
C393        C394   1.404       .  A
C393        S398   1.806       .  S
C394        C395   1.411       .  A
C394        H399   1.082       .  S
C395        C396   1.418       .  A
C396        S400   1.800       .  S
C397        C402   1.407       .  A
C397        C406   1.403       .  A
S398        H414   1.407       .  S
S400        H411   1.408       .  S
C402        C403   1.400       .  A
C402        S407   1.806       .  S
C403        C404   1.406       .  A
C403        H408   1.082       .  S
C404        C405   1.417       .  A
C405        C406   1.406       .  A
C405        S409   1.803       .  S
C406        H410   1.082       .  S
S407        H412   1.406       .  S
S409        H413   1.407       .  S
C415        C416   1.400       .  A
C415        C420   1.400       .  A
C415        H425   1.084       .  S
C416        C421   1.479   1_545  S
C416        C417   1.412       .  A
C417        C418   1.399       .  A
C417        S422   1.804       .  S
C418        C419   1.405       .  A
C418        H423   1.084       .  S
C419        C420   1.419       .  A
C420        S424   1.804       .  S
C421        C426   1.409   1_565  A
C421        C430   1.401       .  A
S422        H438   1.405   1_545  S
S424        H435   1.407       .  S
C426        C427   1.402   1_545  A
C426        S431   1.807       .  S
C427        C428   1.405       .  A
C427        H432   1.083       .  S
C428        C429   1.414       .  A
C429        C430   1.401       .  A
C429        S433   1.799       .  S
C430        H434   1.083       .  S
S431        H436   1.407       .  S
S433        H437   1.407       .  S
C439        C440   1.400       .  A
C439        C444   1.393       .  A
C439        H449   1.084       .  S
C440        C445   1.473       .  S
C440        C441   1.412       .  A
C441        C442   1.401       .  A
C441        S446   1.803       .  S
C442        C443   1.403       .  A
C442        H447   1.083       .  S
C443        C444   1.410       .  A
C444        S448   1.801       .  S
C445        C450   1.407       .  A
C445        C454   1.398       .  A
S446        H462   1.405       .  S
S448        H459   1.406       .  S
C450        C451   1.400       .  A
C450        S455   1.808   1_556  S
C451        C452   1.407       .  A
C451        H456   1.082   1_556  S
C452        C453   1.419       .  A
C453        C454   1.398       .  A
C453        S457   1.802       .  S
C454        H458   1.084       .  S
S455        H460   1.406       .  S
S457        H461   1.408       .  S
C463        C464   1.403       .  A
C463        C468   1.402       .  A
C463        H473   1.083       .  S
C464        C469   1.480       .  S
C464        C465   1.413   1_556  A
C465        C466   1.395       .  A
C465        S470   1.806       .  S
C466        C467   1.401   1_554  A
C466        H471   1.084       .  S
C467        C468   1.413       .  A
C468        S472   1.800       .  S
C469        C474   1.409       .  A
C469        C478   1.401   1_556  A
S470        H486   1.406       .  S
S472        H483   1.406       .  S
C474        C475   1.403       .  A
C474        S479   1.807       .  S
C475        C476   1.407       .  A
C475        H480   1.081       .  S
C476        C477   1.417   1_556  A
C477        C478   1.396       .  A
C477        S481   1.804       .  S
C478        H482   1.084       .  S
S479        H484   1.407       .  S
S481        H485   1.406       .  S
C487        C488   1.402       .  A
C487        C492   1.399       .  A
C487        H497   1.084       .  S
C488        C493   1.480       .  S
C488        C489   1.410       .  A
C489        C490   1.399   1_655  A
C489        S494   1.805   1_655  S
C490        C491   1.410   1_455  A
C490        H495   1.083       .  S
C491        C492   1.416       .  A
C492        S496   1.801       .  S
C493        C498   1.410       .  A
C493        C502   1.401       .  A
S494        H510   1.406   1_455  S
S496        H507   1.408       .  S
C498        C499   1.402       .  A
C498        S503   1.808       .  S
C499        C500   1.406       .  A
C499        H504   1.083       .  S
C500        C501   1.416       .  A
C501        C502   1.399       .  A
C501        S505   1.802       .  S
C502        H506   1.084       .  S
S503        H508   1.407       .  S
S505        H509   1.407       .  S
C511        C512   1.404       .  A
C511        C516   1.405       .  A
C511        H521   1.083       .  S
C512        C517   1.478       .  S
C512        C513   1.410       .  A
C513        C514   1.394       .  A
C513        S518   1.804       .  S
C514        C515   1.401       .  A
C514        H519   1.084       .  S
C515        C516   1.413       .  A
C516        S520   1.799       .  S
C517        C522   1.407       .  A
C517        C526   1.401       .  A
S518        H534   1.405       .  S
S520        H531   1.405       .  S
C522        C523   1.406   1_655  A
C522        S527   1.804       .  S
C523        C524   1.407       .  A
C523        H528   1.083       .  S
C524        C525   1.415   1_455  A
C525        C526   1.395       .  A
C525        S529   1.804       .  S
C526        H530   1.084       .  S
S527        H532   1.407   1_655  S
S529        H533   1.406       .  S
C535        C536   1.401       .  A
C535        C540   1.398       .  A
C535        H545   1.084       .  S
C536        C541   1.482       .  S
C536        C537   1.415       .  A
C537        C538   1.403       .  A
C537        S542   1.805       .  S
C538        C539   1.404       .  A
C538        H543   1.084       .  S
C539        C540   1.415       .  A
C540        S544   1.804       .  S
C541        C546   1.408       .  A
C541        C550   1.402       .  A
S542        H558   1.404       .  S
S544        H555   1.407       .  S
C546        C547   1.405       .  A
C546        S551   1.805   1_455  S
C547        C548   1.407       .  A
C547        H552   1.084       .  S
C548        C549   1.414       .  A
C549        C550   1.398       .  A
C549        S553   1.800       .  S
C550        H554   1.085       .  S
S551        H556   1.407       .  S
S553        H557   1.407       .  S
C559        C560   1.402       .  A
C559        C564   1.399       .  A
C559        H569   1.083       .  S
C560        C565   1.483       .  S
C560        C561   1.413       .  A
C561        C562   1.403       .  A
C561        S566   1.803       .  S
C562        C563   1.405       .  A
C562        H567   1.083       .  S
C563        C564   1.413       .  A
C564        S568   1.809       .  S
C565        C570   1.409       .  A
C565        C574   1.404       .  A
S566        H582   1.406       .  S
S568        H579   1.407       .  S
C570        C571   1.401       .  A
C570        S575   1.807       .  S
C571        C572   1.405       .  A
C571        H576   1.083       .  S
C572        C573   1.415       .  A
C573        C574   1.402       .  A
C573        S577   1.802       .  S
C574        H578   1.084       .  S
S575        H580   1.407       .  S
S577        H581   1.407       .  S
C583        C584   1.402       .  A
C583        C588   1.399       .  A
C583        H593   1.084       .  S
C584        C589   1.479       .  S
C584        C585   1.413       .  A
C585        C586   1.399       .  A
C585        S590   1.804       .  S
C586        C587   1.403       .  A
C586        H591   1.084       .  S
C587        C588   1.415       .  A
C588        S592   1.804       .  S
C589        C594   1.410       .  A
C589        C598   1.402       .  A
S590        H606   1.406       .  S
S592        H603   1.407       .  S
C594        C595   1.402       .  A
C594        S599   1.807       .  S
C595        C596   1.405       .  A
C595        H600   1.083       .  S
C596        C597   1.414       .  A
C597        C598   1.400       .  A
C597        S601   1.804   1_545  S
C598        H602   1.084       .  S
S599        H604   1.407       .  S
S601        H605   1.407       .  S
C607        C608   1.402       .  A
C607        C612   1.406       .  A
C607        H617   1.083       .  S
C608        C613   1.478       .  S
C608        C609   1.408       .  A
C609        C610   1.395       .  A
C609        S614   1.805       .  S
C610        C611   1.407       .  A
C610        H615   1.084       .  S
C611        C612   1.420       .  A
C612        S616   1.809       .  S
C613        C618   1.408       .  A
C613        C622   1.402       .  A
S614        H630   1.405       .  S
S616        H627   1.407       .  S
C618        C619   1.400       .  A
C618        S623   1.808       .  S
C619        C620   1.406       .  A
C619        H624   1.083       .  S
C620        C621   1.416       .  A
C621        C622   1.401       .  A
C621        S625   1.802   1_545  S
C622        H626   1.084       .  S
S623        H628   1.407       .  S
S625        H629   1.406       .  S
C631        C632   1.402       .  A
C631        C636   1.400       .  A
C631        H641   1.084       .  S
C632        C637   1.486       .  S
C632        C633   1.414       .  A
C633        C634   1.402       .  A
C633        S638   1.804       .  S
C634        C635   1.405       .  A
C634        H639   1.083       .  S
C635        C636   1.416       .  A
C636        S640   1.804       .  S
C637        C642   1.411       .  A
C637        C646   1.404       .  A
S638        H654   1.406       .  S
S640        H651   1.408       .  S
C642        C643   1.401       .  A
C642        S647   1.806       .  S
C643        C644   1.406       .  A
C643        H648   1.082       .  S
C644        C645   1.416       .  A
C645        C646   1.404       .  A
C645        S649   1.803       .  S
C646        H650   1.084       .  S
S647        H652   1.406       .  S
S649        H653   1.408       .  S
C655        C656   1.399       .  A
C655        C660   1.394       .  A
C655        H665   1.085       .  S
C656        C661   1.470       .  S
C656        C657   1.411       .  A
C657        C658   1.399       .  A
C657        S662   1.808       .  S
C658        C659   1.407       .  A
C658        H663   1.084       .  S
C659        C660   1.417       .  A
C660        S664   1.803       .  S
C661        C666   1.408       .  A
C661        C670   1.398       .  A
S662        H678   1.402       .  S
S664        H675   1.405       .  S
C666        C667   1.402       .  A
C666        S671   1.806       .  S
C667        C668   1.402       .  A
C667        H672   1.083       .  S
C668        C669   1.410       .  A
C669        C670   1.398       .  A
C669        S673   1.804       .  S
C670        H674   1.083       .  S
S671        H676   1.407       .  S
S673        H677   1.407       .  S
C679        C680   1.397       .  A
C679        C684   1.394       .  A
C679        H689   1.084       .  S
C680        C685   1.475       .  S
C680        C681   1.410       .  A
C681        C682   1.397       .  A
C681        S686   1.804       .  S
C682        C683   1.407       .  A
C682        H687   1.083       .  S
C683        C684   1.422       .  A
C684        S688   1.803       .  S
C685        C690   1.411       .  A
C685        C694   1.404       .  A
S686        H702   1.406       .  S
S688        H699   1.409       .  S
C690        C691   1.395       .  A
C690        S695   1.810       .  S
C691        C692   1.400       .  A
C691        H696   1.083       .  S
C692        C693   1.411       .  A
C693        C694   1.399       .  A
C693        S697   1.804       .  S
C694        H698   1.084       .  S
S695        H700   1.407       .  S
S697        H701   1.406       .  S
C703        C704   1.403       .  A
C703        C708   1.397       .  A
C703        H713   1.084       .  S
C704        C709   1.484       .  S
C704        C705   1.412       .  A
C705        C706   1.402       .  A
C705        S710   1.803       .  S
C706        C707   1.405       .  A
C706        H711   1.084       .  S
C707        C708   1.416       .  A
C708        S712   1.803       .  S
C709        C714   1.409       .  A
C709        C718   1.404       .  A
S710        H726   1.406       .  S
S712        H723   1.405       .  S
C714        C715   1.402       .  A
C714        S719   1.807       .  S
C715        C716   1.406       .  A
C715        H720   1.082       .  S
C716        C717   1.415       .  A
C717        C718   1.402       .  A
C717        S721   1.800       .  S
C718        H722   1.084       .  S
S719        H724   1.407       .  S
S721        H725   1.407       .  S
C727        C728   1.399       .  A
C727        C732   1.395       .  A
C727        H737   1.084       .  S
C728        C733   1.477       .  S
C728        C729   1.411       .  A
C729        C730   1.402       .  A
C729        S734   1.805       .  S
C730        C731   1.408       .  A
C730        H735   1.083       .  S
C731        C732   1.419       .  A
C732        S736   1.802       .  S
C733        C738   1.409       .  A
C733        C742   1.400       .  A
S734        H750   1.404       .  S
S736        H747   1.406       .  S
C738        C739   1.405       .  A
C738        S743   1.806       .  S
C739        C740   1.406       .  A
C739        H744   1.082       .  S
C740        C741   1.413       .  A
C741        C742   1.395       .  A
C741        S745   1.800       .  S
C742        H746   1.084       .  S
S743        H748   1.407       .  S
S745        H749   1.406       .  S
C751        C752   1.403       .  A
C751        C756   1.396       .  A
C751        H761   1.084       .  S
C752        C757   1.473       .  S
C752        C753   1.411       .  A
C753        C754   1.395       .  A
C753        S758   1.805       .  S
C754        C755   1.403       .  A
C754        H759   1.084       .  S
C755        C756   1.411       .  A
C756        S760   1.805       .  S
C757        C762   1.407       .  A
C757        C766   1.400       .  A
S758        H774   1.406       .  S
S760        H771   1.405       .  S
C762        C763   1.400       .  A
C762        S767   1.806       .  S
C763        C764   1.406       .  A
C763        H768   1.083       .  S
C764        C765   1.416       .  A
C765        C766   1.394       .  A
C765        S769   1.802       .  S
C766        H770   1.085       .  S
S767        H772   1.407       .  S
S769        H773   1.407       .  S
C775        C776   1.401       .  A
C775        C780   1.397       .  A
C775        H785   1.084       .  S
C776        C781   1.485       .  S
C776        C777   1.413       .  A
C777        C778   1.399       .  A
C777        S782   1.804       .  S
C778        C779   1.406       .  A
C778        H783   1.084       .  S
C779        C780   1.420       .  A
C780        S784   1.802       .  S
C781        C786   1.412       .  A
C781        C790   1.402       .  A
S782        H798   1.407       .  S
S784        H795   1.408       .  S
C786        C787   1.404       .  A
C786        S791   1.807       .  S
C787        C788   1.406       .  A
C787        H792   1.082       .  S
C788        C789   1.416       .  A
C789        C790   1.395       .  A
C789        S793   1.804       .  S
C790        H794   1.084       .  S
S791        H796   1.407       .  S
S793        H797   1.408       .  S
C799        C800   1.401       .  A
C799        C804   1.404       .  A
C799        H809   1.084       .  S
C800        C805   1.479       .  S
C800        C801   1.409       .  A
C801        C802   1.396       .  A
C801        S806   1.803       .  S
C802        C803   1.408       .  A
C802        H807   1.083       .  S
C803        C804   1.420       .  A
C804        S808   1.802       .  S
C805        C810   1.409       .  A
C805        C814   1.401       .  A
S806        H822   1.403       .  S
S808        H819   1.408       .  S
C810        C811   1.406       .  A
C810        S815   1.805       .  S
C811        C812   1.406       .  A
C811        H816   1.083       .  S
C812        C813   1.412       .  A
C813        C814   1.397       .  A
C813        S817   1.804       .  S
C814        H818   1.084       .  S
S815        H820   1.407       .  S
S817        H821   1.407       .  S
C823        C824   1.402       .  A
C823        C828   1.402       .  A
C823        H833   1.084       .  S
C824        C829   1.472       .  S
C824        C825   1.409       .  A
C825        C826   1.391       .  A
C825        S830   1.806       .  S
C826        C827   1.406       .  A
C826        H831   1.084       .  S
C827        C828   1.416       .  A
C828        S832   1.799       .  S
C829        C834   1.409       .  A
C829        C838   1.402       .  A
S830        H846   1.405       .  S
S832        H843   1.407       .  S
C834        C835   1.400       .  A
C834        S839   1.807       .  S
C835        C836   1.401       .  A
C835        H840   1.083       .  S
C836        C837   1.409       .  A
C837        C838   1.396       .  A
C837        S841   1.804       .  S
C838        H842   1.084       .  S
S839        H844   1.407       .  S
S841        H845   1.404       .  S
