geometry optimzed in LAMMPS
_audit_creation_date              2020-11-30 
_audit_creation_method            'lammps2cif' 
_symmetry_space_group_name_H-M    'P1' 
_symmetry_Int_Tables_number       1 
_symmetry_cell_setting            triclinic 
loop_ 
_symmetry_equiv_pos_as_xyz 
  x,y,z 
_cell_length_a                    34.05086712 
_cell_length_b                    33.84636140842639 
_cell_length_c                    28.6567136232294 
_cell_angle_alpha                 90.65303727640153 
_cell_angle_beta                  89.62927278046574 
_cell_angle_gamma                 120.43809688666254 
loop_ 
_atom_site_label 
_atom_site_type_symbol 
_atom_site_fract_x 
_atom_site_fract_y 
_atom_site_fract_z 
_atom_site_charge 
O1          O  0.55887636  0.71166529  0.33267028    -0.83000
C2          C  0.52365392  0.58931684  0.46763926     0.96300
O3          O  0.54973973  0.60347767  0.43251957    -0.72100
O4          O  0.57700662  0.63943621  0.34894073    -0.75700
Al5        Al  0.57902230  0.66308306  0.41017114     1.49000
C6          C  0.54534209  0.61712351  0.32055568     0.91600
O7          O  0.44006718  0.61652182  0.37110287    -0.81900
O8          O  0.48557438  0.70774675  0.45007607    -0.75500
Al9        Al  0.50137160  0.66321062  0.35588102     1.90100
O10         O  0.44136172  0.61427669  0.44711809    -0.74600
O11         O  0.55413971  0.70922128  0.49500706    -0.74400
O12         O  0.50904738  0.61319418  0.48766484    -0.80100
O13         O  0.60072722  0.68743467  0.47128517    -0.78300
O14         O  0.52618354  0.66257533  0.41041769    -1.14400
O15         O  0.60904813  0.72247605  0.38763125    -0.73600
C16         C  0.59720985  0.73635943  0.35255181     0.97100
C17         C  0.41980705  0.60028287  0.40930537     0.93500
Al18       Al  0.50004994  0.66130292  0.46510430     1.55600
O19         O  0.50796041  0.61552732  0.32639596    -0.78200
C20         C  0.59117546  0.70986815  0.49953959     0.97700
C21         C  0.48182738  0.72377211  0.41182581     0.92500
O22         O  0.48943899  0.70975132  0.37391695    -0.83600
O23         O  0.71093588  0.56925972  0.15366119    -0.83000
C24         C  0.58766854  0.53804551  0.02301215     0.96300
O25         O  0.60344913  0.56523481  0.05769990    -0.72100
O26         O  0.64174308  0.59225046  0.14096891    -0.75700
Al27       Al  0.66313594  0.59351198  0.07906304     1.49000
C28         C  0.61714914  0.55964644  0.16736549     0.91600
O29         O  0.61216318  0.45425880  0.11405489    -0.81900
O30         O  0.70822288  0.50326834  0.03450629    -0.75500
Al31       Al  0.66080541  0.51326054  0.13013558     1.90100
O32         O  0.61543720  0.45370426  0.03805248    -0.74600
O33         O  0.70528487  0.56993915  0.99059549    -0.74400
O34         O  0.60988390  0.52201308  0.00201440    -0.80100
O35         O  0.68457944  0.61591971  0.01833697    -0.78300
O36         O  0.66128327  0.53981641  0.07662764    -1.14400
O37         O  0.72306746  0.62184773  0.10030407    -0.73600
C38         C  0.73636090  0.60755751  0.13397162     0.97100
C39         C  0.59881293  0.43305667  0.07573481     0.93500
Al40       Al  0.65983835  0.51467396  0.02115833     1.55600
O41         O  0.61524392  0.52203467  0.16068626    -0.78200
C42         C  0.70499098  0.60678546  0.98757981     0.97700
C43         C  0.72071980  0.49379312  0.07211755     0.92500
O44         O  0.70449941  0.49737931  0.11057154    -0.83600
O45         O  0.79908712  0.75930675  0.66834370    -0.83000
C46         C  0.72053717  0.80772742  0.80151369     0.96300
O47         O  0.70532985  0.77937686  0.76776992    -0.72100
O48         O  0.70811104  0.74350325  0.68572277    -0.75700
Al49       Al  0.73158876  0.74570899  0.74676161     1.49000
C50         C  0.71698886  0.77369423  0.65594823     0.91600
O51         O  0.82443530  0.88036932  0.69994608    -0.81900
O52         O  0.87268794  0.83675842  0.77912138    -0.75500
Al53       Al  0.80950737  0.81857810  0.68731986     1.90100
O54         O  0.82821895  0.88480859  0.77612878    -0.74600
O55         O  0.80527778  0.77159876  0.82694481    -0.74400
O56         O  0.75861417  0.82027425  0.82104937    -0.80100
O57         O  0.73423814  0.72771841  0.80919571    -0.78300
O58         O  0.78560298  0.79738948  0.74331381    -1.14400
O59         O  0.75817727  0.71238156  0.72600319    -0.73600
C60         C  0.78479890  0.72244012  0.69138434     0.97100
C61         C  0.83248922  0.90355575  0.73720063     0.93500
Al62       Al  0.81363630  0.82573142  0.79624510     1.55600
O63         O  0.75474934  0.81033531  0.65825856    -0.78200
C64         C  0.76730852  0.73659905  0.83501955     0.97700
C65         C  0.89147570  0.84010920  0.74012654     0.92500
O66         O  0.86886467  0.83223300  0.70327757    -0.83600
O67         O  0.27438426  0.49346662  0.88076847    -0.83000
C68         C  0.40235017  0.46669985  0.97167064     0.96300
O69         O  0.37858576  0.48074610  0.99268356    -0.72100
O70         O  0.37772138  0.54780903  0.95028838    -0.75700
Al71       Al  0.33061591  0.48993462  0.97035860     1.49000
C72         C  0.38748093  0.56824721  0.91181622     0.91600
O73         O  0.37070400  0.47915089  0.83175001    -0.81900
O74         O  0.26744061  0.37701825  0.89689839    -0.75500
Al75       Al  0.32238742  0.48391876  0.86160303     1.90100
O76         O  0.34948632  0.41040149  0.85455878    -0.74600
O77         O  0.30627269  0.38989965  0.97889635    -0.74400
O78         O  0.38760934  0.44011013  0.93668461    -0.80100
O79         O  0.28327885  0.43619836  0.00129580    -0.78300
O80         O  0.32680297  0.46164294  0.91623807    -1.14400
O81         O  0.28495961  0.50560849  0.95591109    -0.73600
C82         C  0.26474574  0.50541650  0.91893496     0.97100
C83         C  0.37141448  0.44255922  0.82650375     0.93500
Al84       Al  0.32760188  0.40916615  0.91669344     1.55600
O85         O  0.36707487  0.54668733  0.87517735    -0.78200
C86         C  0.28412687  0.39977653  0.00710521     0.97700
C87         C  0.25228348  0.38710422  0.86171384     0.92500
O88         O  0.27549731  0.42451604  0.83979668    -0.83600
O89         O  0.48871744  0.28077910  0.61873758    -0.83000
C90         C  0.45605156  0.40545772  0.52565296     0.96300
O91         O  0.47061585  0.38143930  0.50620076    -0.72100
O92         O  0.53975373  0.38307766  0.54821400    -0.75700
Al93       Al  0.48077336  0.33455341  0.52904380     1.49000
C94         C  0.56025317  0.39395846  0.58700072     0.91600
O95         O  0.47340600  0.37688006  0.66907261    -0.81900
O96         O  0.37131654  0.27277956  0.60642085    -0.75500
Al97       Al  0.47827908  0.32859854  0.63823157     1.90100
O98         O  0.40548316  0.35677211  0.64564724    -0.74600
O99         O  0.38010834  0.30842624  0.52394153    -0.74400
O100        O  0.43133961  0.39236681  0.56183794    -0.80100
O101        O  0.42604314  0.28604439  0.49917462    -0.78300
O102        O  0.45433059  0.33197552  0.58390471    -1.14400
O103        O  0.49659048  0.28921778  0.54312197    -0.73600
C104        C  0.49872299  0.27027449  0.58000457     0.97100
C105        C  0.43741893  0.37831664  0.67402704     0.93500
Al106      Al  0.40202202  0.33254355  0.58456618     1.55600
O107        O  0.53918661  0.37382677  0.62353825    -0.78200
C108        C  0.38869822  0.28534494  0.49567078     0.97700
C109        C  0.38330871  0.25751609  0.64002733     0.92500
O110        O  0.42085453  0.28133165  0.66122708    -0.83600
O111        O  0.15843354  0.11860412  0.21472051    -0.83000
C112        C  0.19442178  0.27710714  0.30764102     0.96300
O113        O  0.17964115  0.23867459  0.32741996    -0.72100
O114        O  0.11214358  0.16772678  0.28577321    -0.75700
Al115      Al  0.17114237  0.18126569  0.30499158     1.49000
C116        C  0.09275889  0.16231485  0.24699249     0.91600
O117        O  0.18298140  0.23256522  0.16396387    -0.81900
O118        O  0.28141138  0.22928481  0.22743712    -0.75500
Al119      Al  0.17375578  0.17852150  0.19562218     1.90100
O120        O  0.25002421  0.28076535  0.19000528    -0.74600
O121        O  0.27287736  0.25711826  0.31141377    -0.74400
O122        O  0.22192088  0.28952406  0.27356117    -0.80100
O123        O  0.22498059  0.18899773  0.33576141    -0.78300
O124        O  0.19818263  0.20563899  0.25036980    -1.14400
O125        O  0.15707460  0.12017269  0.29072473    -0.73600
C126        C  0.15174562  0.09833980  0.25312952     0.97100
C127        C  0.21951803  0.27020112  0.16018628     0.93500
Al128      Al  0.25125405  0.25888844  0.25063852     1.55600
O129        O  0.11429771  0.16710105  0.20950330    -0.78200
C130        C  0.26294431  0.22535852  0.33953524     0.97700
C131        C  0.26869458  0.20128772  0.19340697     0.92500
O132        O  0.22998655  0.18534802  0.17423910    -0.83600
O133        O  0.41820083  0.14298485  0.15335171    -0.83000
C134        C  0.45190230  0.05530709  0.01600500     0.96300
O135        O  0.42516795  0.04346530  0.05046659    -0.72100
O136        O  0.39908775  0.05222413  0.13448960    -0.75700
Al137      Al  0.39759612  0.07471315  0.07363851     1.49000
C138        C  0.43097867  0.06135409  0.16237832     0.91600
O139        O  0.53672188  0.16904440  0.11490665    -0.81900
O140        O  0.49845515  0.21397858  0.03726795    -0.75500
Al141      Al  0.47538563  0.15294723  0.12970471     1.90100
O142        O  0.53655341  0.16003498  0.03932947    -0.74600
O143        O  0.42678034  0.14841927  0.99139043    -0.74400
O144        O  0.46677615  0.09356574  0.99583782    -0.80100
O145        O  0.37781288  0.07928583  0.01278721    -0.78300
O146        O  0.45141481  0.12711612  0.07466108    -1.14400
O147        O  0.36860085  0.10471934  0.09686309    -0.73600
C148        C  0.38044356  0.12981083  0.13299213     0.97100
C149        C  0.55742049  0.17028617  0.07774548     0.93500
Al150      Al  0.47939363  0.15172846  0.02066893     1.55600
O151        O  0.46833288  0.09810231  0.15733866    -0.78200
C152        C  0.38885842  0.11225887  0.98581509     0.97700
C153        C  0.50045092  0.23403052  0.07540121     0.92500
O154        O  0.48715134  0.21167722  0.11263897    -0.83600
O155        O  0.22518362  0.05128853  0.67294944    -0.83000
C156        C  0.18823543  0.92297786  0.80360001     0.96300
O157        O  0.21540636  0.93734217  0.76927718    -0.72100
O158        O  0.24610878  0.97471088  0.68693204    -0.75700
Al159      Al  0.24541711  0.99754427  0.74749426     1.49000
C160        C  0.21698821  0.95515658  0.65566395     0.91600
O161        O  0.11007211  0.94769114  0.70364919    -0.81900
O162        O  0.15324291  0.04289886  0.78630957    -0.75500
Al163      Al  0.16886681  0.99892487  0.69120625     1.90100
O164        O  0.10663203  0.94985737  0.77993452    -0.74600
O165        O  0.21930263  0.04248632  0.83211744    -0.74400
O166        O  0.17282606  0.94647416  0.82270585    -0.80100
O167        O  0.26592901  0.02087461  0.80873671    -0.78300
O168        O  0.19271622  0.99726834  0.74621565    -1.14400
O169        O  0.27594611  0.05750884  0.72597283    -0.73600
C170        C  0.26343944  0.07381660  0.69357456     0.97100
C171        C  0.08787401  0.93300601  0.74121009     0.93500
Al172      Al  0.16559111  0.99556469  0.80040236     1.55600
O173        O  0.18090122  0.95655837  0.65760596    -0.78200
C174        C  0.25633223  0.04322845  0.83691049     0.97700
C175        C  0.14374647  0.05535882  0.74893900     0.92500
O176        O  0.14941620  0.04060807  0.71044237    -0.83600
O177        O  0.37966311  0.90491866  0.48502200    -0.83000
C178        C  0.25267797  0.86916040  0.35490877     0.96300
O179        O  0.26992157  0.89839708  0.38764548    -0.72100
O180        O  0.30774403  0.92701900  0.47022898    -0.75700
Al181      Al  0.32981411  0.92651813  0.40913687     1.49000
C182        C  0.28508284  0.89620552  0.49913199     0.91600
O183        O  0.27937234  0.78789015  0.45188000    -0.81900
O184        O  0.36890903  0.82985390  0.36851355    -0.75500
Al185      Al  0.32876427  0.84812881  0.46439667     1.90100
O186        O  0.27607517  0.78432082  0.37601321    -0.74600
O187        O  0.36788619  0.89573589  0.32144510    -0.74400
O188        O  0.27388239  0.85174029  0.33496769    -0.80100
O189        O  0.35240273  0.94627483  0.34783878    -0.78300
O190        O  0.32704708  0.87214533  0.40953509    -1.14400
O191        O  0.38990382  0.95600294  0.43102468    -0.73600
C192        C  0.40380172  0.94364240  0.46575131     0.97100
C193        C  0.26202270  0.76526055  0.41498174     0.93500
Al194      Al  0.32225113  0.84328019  0.35524115     1.55600
O195        O  0.28473103  0.85895033  0.49585639    -0.78200
C196        C  0.37024836  0.93379752  0.31718897     0.97700
C197        C  0.38409542  0.82324023  0.40580634     0.92500
O198        O  0.37170483  0.83103577  0.44470999    -0.83600
O199        O  0.50123510  0.78954775  0.88323912    -0.83000
C200        C  0.52891208  0.94386879  0.98066319     0.96300
O201        O  0.51413055  0.90534454  0.00026722    -0.72100
O202        O  0.44653757  0.83918146  0.95424304    -0.75700
Al203      Al  0.50320672  0.84784113  0.97490111     1.49000
C204        C  0.42694206  0.82815674  0.91515929     0.91600
O205        O  0.51730489  0.90197105  0.83819008    -0.81900
O206        O  0.61689552  0.89832939  0.90337409    -0.75500
Al207      Al  0.51125253  0.84774248  0.86629127     1.90100
O208        O  0.58542029  0.94939468  0.86359773    -0.74600
O209        O  0.60347571  0.92173810  0.98662224    -0.74400
O210        O  0.55606693  0.95643013  0.94653723    -0.80100
O211        O  0.55522294  0.85152995  0.00555957    -0.78300
O212        O  0.53276219  0.87353022  0.92196714    -1.14400
O213        O  0.48582302  0.78610319  0.95768786    -0.73600
C214        C  0.48762264  0.76692378  0.92030352     0.97100
C215        C  0.55432375  0.93933519  0.83430973     0.93500
Al216      Al  0.58569242  0.92673625  0.92484358     1.55600
O217        O  0.44909906  0.82955218  0.87911427    -0.78200
C218        C  0.59252181  0.88799600  0.01251548     0.97700
C219        C  0.60653527  0.87331750  0.86732684     0.92500
O220        O  0.56980237  0.86014564  0.84500288    -0.83600
O221        O  0.87319723  0.04562702  0.21098561    -0.83000
C222        C  0.72145365  0.92389189  0.30694250     0.96300
O223        O  0.76003396  0.94861495  0.32662840    -0.72100
O224        O  0.83267166  0.95658461  0.28591149    -0.75700
Al225      Al  0.81632597  0.99982232  0.30396246     1.49000
C226        C  0.83934798  0.94143639  0.24838478     0.91600
O227        O  0.75956127  0.94911388  0.16748905    -0.81900
O228        O  0.76564791  0.05691818  0.22795814    -0.75500
Al229      Al  0.81437398  0.99828586  0.19477735     1.90100
O230        O  0.71453246  0.97309561  0.18994542    -0.74600
O231        O  0.73839737  0.02130553  0.31179657    -0.74400
O232        O  0.70831421  0.93849206  0.27345287    -0.80100
O233        O  0.80702391  0.04509357  0.33513013    -0.78300
O234        O  0.78997477  0.99864414  0.24993738    -1.14400
O235        O  0.87606638  0.04922536  0.28729943    -0.73600
C236        C  0.89550917  0.06200483  0.24798247     0.97100
C237        C  0.72313846  0.94946692  0.16241509     0.93500
Al238      Al  0.73694748  0.99758046  0.25076478     1.55600
O239        O  0.83020269  0.95257617  0.20977349    -0.78200
C240        C  0.76981239  0.04389909  0.34026523     0.97700
C241        C  0.79139745  0.07096383  0.19247498     0.92500
O242        O  0.80422093  0.04592388  0.17159044    -0.83600
O243        O  0.70548230  0.21627856  0.62181512    -0.83000
C244        C  0.58690781  0.05808052  0.52853207     0.96300
O245        O  0.61171776  0.09691428  0.50948519    -0.72100
O246        O  0.61965382  0.17124339  0.54785945    -0.75700
Al247      Al  0.66242580  0.15345070  0.53139743     1.49000
C248        C  0.60249397  0.17678790  0.58460682     0.91600
O249        O  0.61513925  0.10255161  0.67299743    -0.81900
O250        O  0.71842409  0.10518800  0.61136272    -0.75500
Al251      Al  0.66086088  0.15642765  0.64063241     1.90100
O252        O  0.63564734  0.05522350  0.64869038    -0.74600
O253        O  0.68244464  0.07406070  0.52754570    -0.74400
O254        O  0.59970436  0.04537879  0.56401451    -0.80100
O255        O  0.70718961  0.14232827  0.50224326    -0.78300
O256        O  0.66061991  0.12891285  0.58668631    -1.14400
O257        O  0.71211781  0.21298271  0.54618677    -0.73600
C258        C  0.72401091  0.23539151  0.58405142     0.97100
C259        C  0.61526238  0.06579500  0.67818791     0.93500
Al260      Al  0.65912943  0.07538607  0.58792730     1.55600
O261        O  0.61257414  0.16760920  0.62389836    -0.78200
C262        C  0.70588363  0.10467524  0.49879814     0.97700
C263        C  0.73379348  0.13443425  0.64439925     0.92500
O264        O  0.71067244  0.15044797  0.66333500    -0.83600
O265        O  0.13083433  0.42402106  0.33986845    -0.83000
C266        C  0.04534088  0.46384002  0.47633038     0.96300
O267        O  0.03278536  0.43783494  0.44068754    -0.72100
O268        O  0.04065941  0.40824575  0.35722029    -0.75700
Al269      Al  0.06218526  0.40719845  0.41812600     1.49000
C270        C  0.04988583  0.43999975  0.32927854     0.91600
O271        O  0.15843501  0.54505539  0.37632407    -0.81900
O272        O  0.20120605  0.50358862  0.45529457    -0.75500
Al273      Al  0.14190430  0.48285702  0.36199054     1.90100
O274        O  0.15107444  0.54589036  0.45211663    -0.74600
O275        O  0.13478978  0.43391129  0.50046874    -0.74400
O276        O  0.08370958  0.47771763  0.49563626    -0.80100
O277        O  0.06503255  0.38759219  0.47937946    -0.78300
O278        O  0.11549353  0.45992487  0.41700523    -1.14400
O279        O  0.09035007  0.37537416  0.39602939    -0.73600
C280        C  0.11631892  0.38611751  0.36085432     0.97100
C281        C  0.16032600  0.56634582  0.41357788     0.93500
Al282      Al  0.14049643  0.48772080  0.47110855     1.55600
O283        O  0.08786436  0.47649070  0.33264494    -0.78200
C284        C  0.09780403  0.39676813  0.50581630     0.97700
C285        C  0.22184824  0.50503401  0.41812827     0.92500
O286        O  0.20063547  0.49435810  0.37990890    -0.83600
O287        O  0.89941745  0.38269734  0.00681538    -0.83000
C288        C  0.85578830  0.25833415  0.14291054     0.96300
O289        O  0.88341049  0.27295078  0.10903989    -0.72100
O290        O  0.91319672  0.30762783  0.02604082    -0.75700
Al291      Al  0.91448393  0.33239226  0.08652936     1.49000
C292        C  0.88211563  0.28589569  0.99681923     0.91600
O293        O  0.77856649  0.29137973  0.04128539    -0.81900
O294        O  0.81943641  0.37745856  0.12073394    -0.75500
Al295      Al  0.84070161  0.33605142  0.02838747     1.90100
O296        O  0.77531390  0.28376112  0.11685982    -0.74600
O297        O  0.88673969  0.37905695  0.16896445    -0.74400
O298        O  0.84168434  0.28293569  0.16207764    -0.80100
O299        O  0.93401261  0.35711847  0.14766241    -0.78300
O300        O  0.86238377  0.33329132  0.08411737    -1.14400
O301        O  0.94703555  0.39183387  0.06395089    -0.73600
C302        C  0.93704355  0.40632044  0.02815380     0.97100
C303        C  0.75587962  0.27278334  0.07765525     0.93500
Al304      Al  0.83360050  0.33114616  0.13742983     1.55600
O305        O  0.84589882  0.28714949  0.99996185    -0.78200
C306        C  0.92382996  0.37995037  0.17465825     0.97700
C307        C  0.81983552  0.39620626  0.08268248     0.92500
O308        O  0.83101666  0.38445225  0.04541189    -0.83600
O309        O  0.04120579  0.23770931  0.82829949    -0.83000
C310        C  0.92072863  0.21034183  0.69408008     0.96300
O311        O  0.93621010  0.23608187  0.72970413    -0.72100
O312        O  0.97263392  0.26005726  0.81343114    -0.75700
Al313      Al  0.99554289  0.26250064  0.75185862     1.49000
C314        C  0.94741315  0.22707829  0.83928733     0.91600
O315        O  0.94447422  0.12078001  0.78586951    -0.81900
O316        O  0.03270558  0.16356969  0.70772083    -0.75500
Al317      Al  0.99194477  0.18133637  0.80310813     1.90100
O318        O  0.94037341  0.12417435  0.71011610    -0.74600
O319        O  0.03864504  0.23605994  0.66609056    -0.74400
O320        O  0.94337175  0.19523721  0.67249610    -0.80100
O321        O  0.01944976  0.28450139  0.69117296    -0.78300
O322        O  0.99217089  0.20798366  0.74959285    -1.14400
O323        O  0.05483109  0.28953988  0.77386480    -0.73600
C324        C  0.06731151  0.27566039  0.80835012     0.97100
C325        C  0.92705720  0.10171349  0.74727354     0.93500
Al326      Al  0.98917968  0.18229349  0.69398816     1.55600
O327        O  0.94535844  0.18922472  0.83287845    -0.78200
C328        C  0.04059748  0.27399108  0.66243484     0.97700
C329        C  0.04881541  0.15862012  0.74540238     0.92500
O330        O  0.03708434  0.16782171  0.78392143    -0.83600
O331        O  0.20678352  0.71851035  0.88393514    -0.83000
C332        C  0.05353514  0.59368910  0.98122964     0.96300
O333        O  0.09243313  0.61747599  0.00032717    -0.72100
O334        O  0.15929821  0.61763080  0.95521403    -0.75700
Al335      Al  0.14947504  0.66532331  0.97604653     1.49000
C336        C  0.16791098  0.60634484  0.91613660     0.91600
O337        O  0.09295158  0.62157184  0.83922759    -0.81900
O338        O  0.09987301  0.72816486  0.90466031    -0.75500
Al339      Al  0.14807780  0.67043636  0.86713205     1.90100
O340        O  0.04821885  0.64502414  0.86475309    -0.74600
O341        O  0.07544633  0.69095283  0.98801953    -0.74400
O342        O  0.04119145  0.60813936  0.94709182    -0.80100
O343        O  0.14495768  0.71341081  0.00800186    -0.78300
O344        O  0.12358901  0.66803415  0.92303934    -1.14400
O345        O  0.21049611  0.71119639  0.95933616    -0.73600
C346        C  0.22938058  0.72989956  0.92127154     0.97100
C347        C  0.05646374  0.62229111  0.83547630     0.93500
Al348      Al  0.07110892  0.66808592  0.92592624     1.55600
O349        O  0.16493998  0.62525559  0.87963507    -0.78200
C350        C  0.10818905  0.71281629  0.01542840     0.97700
C351        C  0.12311128  0.74156974  0.86755899     0.92500
O352        O  0.13670947  0.71759357  0.84598423    -0.83600
O353        O  0.04437095  0.87845592  0.29002346    -0.83000
C354        C  0.91738690  0.71874030  0.20029503     0.96300
O355        O  0.94272030  0.75555801  0.17840014    -0.72100
O356        O  0.94070620  0.82408205  0.21897180    -0.75700
Al357      Al  0.98894295  0.81415547  0.20133830     1.49000
C358        C  0.93188649  0.83704127  0.25696365     0.91600
O359        O  0.94773244  0.76798408  0.34132400    -0.81900
O360        O  0.05026353  0.76730047  0.27921565    -0.75500
Al361      Al  0.99593165  0.82061175  0.31007164     1.90100
O362        O  0.96769314  0.71910735  0.31949493    -0.74600
O363        O  0.01392243  0.73935052  0.19596222    -0.74400
O364        O  0.93084573  0.70749062  0.23604062    -0.80100
O365        O  0.03787414  0.80884270  0.17368686    -0.78300
O366        O  0.99179927  0.79154743  0.25643858    -1.14400
O367        O  0.03305417  0.87659990  0.21511078    -0.73600
C368        C  0.05358456  0.89864441  0.25136878     0.97100
C369        C  0.94742672  0.73110106  0.34793976     0.93500
Al370      Al  0.99067435  0.73806457  0.25755523     1.55600
O371        O  0.95166853  0.83710876  0.29421680    -0.78200
C372        C  0.03785293  0.77180560  0.16872968     0.97700
C373        C  0.06521144  0.79452022  0.31372234     0.92500
O374        O  0.04226955  0.81006737  0.33356396    -0.83600
O375        O  0.77800830  0.50412391  0.62773230    -0.83000
C376        C  0.93596211  0.53903639  0.53556302     0.96300
O377        O  0.89846968  0.52629598  0.51474504    -0.72100
O378        O  0.82900747  0.45674226  0.55323030    -0.75700
Al379      Al  0.84085817  0.51566478  0.53764526     1.49000
C380        C  0.81713135  0.43356599  0.58993887     0.91600
O381        O  0.88887426  0.51885588  0.67662652    -0.81900
O382        O  0.88832965  0.62334464  0.61915969    -0.75500
Al383      Al  0.83584982  0.51409238  0.64670851     1.90100
O384        O  0.93669603  0.58876699  0.65657202    -0.74600
O385        O  0.91665465  0.61621544  0.53461123    -0.74400
O386        O  0.94743038  0.56384368  0.57200263    -0.80100
O387        O  0.84788899  0.57071521  0.51082866    -0.78300
O388        O  0.86404381  0.54033815  0.59330830    -1.14400
O389        O  0.77951532  0.49942911  0.55181574    -0.73600
C390        C  0.75800705  0.49619565  0.58893031     0.97100
C391        C  0.92579114  0.55581812  0.68345586     0.93500
Al392      Al  0.91734602  0.59318945  0.59543337     1.55600
O393        O  0.81918351  0.45249049  0.62887729    -0.78200
C394        C  0.88534577  0.60727353  0.50598448     0.97700
C395        C  0.86152937  0.61039376  0.65381281     0.92500
O396        O  0.84640710  0.57132631  0.67237279    -0.83600
C397        C  0.89442107  0.63968237  0.46638323    -0.07300
C398        C  0.92815476  0.68611623  0.47239956    -0.18500
C399        C  0.94332685  0.71721872  0.43519062     0.09900
C400        C  0.92550342  0.70213611  0.38985206    -0.07300
C401        C  0.89137241  0.65600947  0.38370470    -0.18500
C402        C  0.87500169  0.62513765  0.42128000     0.09900
S403        S  0.98929841  0.77457142  0.44664753    -0.33500
S404        S  0.83222665  0.56679646  0.40829740    -0.33500
H405        H  0.80142179  0.56683507  0.44119269     0.27900
H406        H  0.96825754  0.79561529  0.42404946     0.27900
H407        H  0.94387032  0.69820575  0.50631995     0.18500
H408        H  0.87810296  0.64356843  0.34900626     0.18500
C409        C  0.10124080  0.73562547  0.05688725    -0.07300
C410        C  0.08981792  0.76962235  0.04980788    -0.18500
C411        C  0.07268444  0.78496723  0.08624425     0.09900
C412        C  0.06444601  0.76451048  0.13088457    -0.07300
C413        C  0.07758740  0.73167896  0.13814420    -0.18500
C414        C  0.09629013  0.71766817  0.10219873     0.09900
S415        S  0.05837364  0.82779628  0.07226900    -0.33500
S416        S  0.10856586  0.67306843  0.11502358    -0.33500
H417        H  0.15032385  0.69386635  0.09104414     0.27900
H418        H  0.08687900  0.85796726  0.10725840     0.27900
H419        H  0.09284265  0.78328505  0.01508791     0.18500
H420        H  0.07206676  0.71567920  0.17197389     0.18500
C421        C  0.02290148  0.59808194  0.79673907    -0.07300
C422        C  0.97638135  0.58137454  0.80584320    -0.18500
C423        C  0.94343543  0.56361227  0.77021877     0.09900
C424        C  0.95660520  0.56271139  0.72353295    -0.07300
C425        C  0.00277836  0.57792943  0.71446893    -0.18500
C426        C  0.03579760  0.59536864  0.75020396     0.09900
S427        S  0.88590598  0.54736914  0.78573450    -0.33500
S428        S  0.09420073  0.61739152  0.73320367    -0.33500
H429        H  0.11063143  0.65903807  0.75770743     0.27900
H430        H  0.86620926  0.50577811  0.76066739     0.27900
H431        H  0.96561172  0.58329315  0.84106217     0.18500
H432        H  0.01364743  0.57848425  0.67871967     0.18500
C433        C  0.89057991  0.26244127  0.95693340    -0.07300
C434        C  0.88341787  0.27224138  0.91138860    -0.18500
C435        C  0.89975780  0.25927495  0.87229091     0.09900
C436        C  0.92272432  0.23461072  0.87847451    -0.07300
C437        C  0.92689340  0.22187736  0.92383668    -0.18500
C438        C  0.91168954  0.23602253  0.96304821     0.09900
S439        S  0.89167955  0.27506174  0.81464145    -0.33500
S440        S  0.91971202  0.22055984  0.02085749    -0.33500
H441        H  0.94260856  0.19746839  0.00720372     0.27900
H442        H  0.86855411  0.29787886  0.82845424     0.27900
H443        H  0.86737925  0.29255212  0.90664818     0.18500
H444        H  0.94438412  0.20297158  0.92868583     0.18500
C445        C  0.02322473  0.54697106  0.99692334    -0.07300
C446        C  0.04280789  0.52033699  0.00756674    -0.18500
C447        C  0.01553375  0.47347899  0.01583223     0.09900
C448        C  0.96783879  0.45324601  0.01349737    -0.07300
C449        C  0.94833870  0.47984076  0.00269897    -0.18500
C450        C  0.97543503  0.52658178  0.99511118     0.09900
S451        S  0.04187521  0.43952627  0.02629161    -0.33500
S452        S  0.94684738  0.55837694  0.98526992    -0.33500
H453        H  0.97976464  0.59844919  0.00831388     0.27900
H454        H  0.08722623  0.47607130  0.02740292     0.27900
H455        H  0.07952685  0.53593905  0.00747668     0.18500
H456        H  0.91160868  0.46450613  0.00230288     0.18500
C457        C  0.01646159  0.48104105  0.49433322    -0.07300
C458        C  0.03804870  0.52693965  0.50935034    -0.18500
C459        C  0.01290431  0.54757487  0.52143544     0.09900
C460        C  0.96498898  0.52168623  0.51858611    -0.07300
C461        C  0.94339720  0.47565651  0.50405915    -0.18500
C462        C  0.96852750  0.45478730  0.49291064     0.09900
S463        S  0.04408254  0.60724805  0.53841261    -0.33500
S464        S  0.93737059  0.39409508  0.48052304    -0.33500
H465        H  0.96977248  0.38518320  0.50033983     0.27900
H466        H  0.01376777  0.61841182  0.51737991     0.27900
H467        H  0.07493204  0.54748079  0.51005650     0.18500
H468        H  0.90650819  0.45508106  0.50361060     0.18500
C469        C  0.09076761  0.36444197  0.54437505    -0.07300
C470        C  0.10661623  0.38189133  0.58940616    -0.18500
C471        C  0.09347541  0.35285824  0.62830510     0.09900
C472        C  0.06415038  0.30499076  0.62246649    -0.07300
C473        C  0.05098315  0.28725478  0.57713838    -0.18500
C474        C  0.06355893  0.31626333  0.53822203     0.09900
S475        S  0.11445024  0.37900917  0.68470311    -0.33500
S476        S  0.04403508  0.29117977  0.48091353    -0.33500
H477        H  0.01866640  0.24520115  0.49498532     0.27900
H478        H  0.11426604  0.34089369  0.70380015     0.27900
H479        H  0.12753535  0.41858820  0.59471634     0.18500
H480        H  0.02849539  0.25069313  0.57258948     0.18500
C481        C  0.95491773  0.40495425  0.21452624    -0.07300
C482        C  0.93864808  0.39160123  0.26004670    -0.18500
C483        C  0.96861888  0.40489504  0.29839265     0.09900
C484        C  0.01640415  0.43237568  0.29142897    -0.07300
C485        C  0.03224094  0.44873897  0.24628527    -0.18500
C486        C  0.00216569  0.43547001  0.20809040     0.09900
S487        S  0.94512425  0.38587393  0.35596305    -0.33500
S488        S  0.02612542  0.45797072  0.15163789    -0.33500
H489        H  0.98688890  0.45632822  0.13390582     0.27900
H490        H  0.89892308  0.36524331  0.34351558     0.27900
H491        H  0.90253520  0.36835244  0.26515570     0.18500
H492        H  0.06849737  0.47036045  0.24025921     0.18500
C493        C  0.78107151  0.15279618  0.65852292    -0.07300
C494        C  0.81344303  0.16390640  0.62291799    -0.18500
C495        C  0.85972817  0.18515947  0.63298488     0.09900
C496        C  0.87394759  0.19480190  0.67984132    -0.07300
C497        C  0.84162129  0.18444158  0.71537559    -0.18500
C498        C  0.79535527  0.16333183  0.70528256     0.09900
S499        S  0.89877836  0.20064568  0.58454673    -0.33500
S500        S  0.75641350  0.14868501  0.75365516    -0.33500
H501        H  0.72182584  0.10764930  0.73357504     0.27900
H502        H  0.93375674  0.24085955  0.60554440     0.27900
H503        H  0.80275202  0.15756615  0.58673469     0.18500
H504        H  0.85221768  0.19073742  0.75159056     0.18500
C505        C  0.75637347  0.28583542  0.58367594    -0.07300
C506        C  0.75619462  0.31006203  0.54441217    -0.18500
C507        C  0.77539619  0.35764042  0.54563363     0.09900
C508        C  0.79830120  0.38306149  0.58636318    -0.07300
C509        C  0.80130352  0.35911699  0.62466151    -0.18500
C510        C  0.78105391  0.31110970  0.62364178     0.09900
S511        S  0.76416061  0.38238730  0.49571216    -0.33500
S512        S  0.78850215  0.28428302  0.67415720    -0.33500
H513        H  0.78906870  0.24870040  0.64882769     0.27900
H514        H  0.74732409  0.40562034  0.52270758     0.27900
H515        H  0.73741585  0.29145934  0.51353732     0.18500
H516        H  0.81931323  0.37787405  0.65578969     0.18500
C517        C  0.83944486  0.21117605  0.15871111    -0.07300
C518        C  0.86441357  0.19046862  0.14442534    -0.18500
C519        C  0.84903630  0.14443089  0.15291943     0.09900
C520        C  0.80735092  0.11801645  0.17676169    -0.07300
C521        C  0.78239817  0.13869813  0.19122029    -0.18500
C522        C  0.79789986  0.18486386  0.18289118     0.09900
S523        S  0.88405921  0.12124848  0.13361831    -0.33500
S524        S  0.76357441  0.20851200  0.20322293    -0.33500
H525        H  0.72533120  0.16724968  0.21754996     0.27900
H526        H  0.92325787  0.16298106  0.12220172     0.27900
H527        H  0.89629135  0.21050805  0.12606113     0.18500
H528        H  0.75058788  0.11855258  0.20968426     0.18500
C529        C  0.76123878  0.06651497  0.38091033    -0.07300
C530        C  0.76370851  0.05233622  0.42607465    -0.18500
C531        C  0.74812997  0.06597534  0.46522550     0.09900
C532        C  0.72949003  0.09489762  0.45979036    -0.07300
C533        C  0.72915931  0.11085703  0.41474319    -0.18500
C534        C  0.74451411  0.09691000  0.37556973     0.09900
S535        S  0.75260987  0.04465732  0.52107781    -0.33500
S536        S  0.74112651  0.11838859  0.31939574    -0.33500
H537        H  0.77922874  0.11829332  0.30029055     0.27900
H538        H  0.76326613  0.08502352  0.54555982     0.27900
H539        H  0.77619467  0.02886995  0.43073005     0.18500
H540        H  0.71508312  0.13290637  0.40964043     0.18500
C541        C  0.86105335  0.91274289  0.25097243    -0.07300
C542        C  0.84812008  0.87537686  0.22041205    -0.18500
C543        C  0.86806755  0.84770898  0.22326173     0.09900
C544        C  0.90225087  0.85775296  0.25710289    -0.07300
C545        C  0.91411219  0.89441152  0.28812541    -0.18500
C546        C  0.89512875  0.92239140  0.28473733     0.09900
S547        S  0.84765122  0.79961578  0.18355961    -0.33500
S548        S  0.91988688  0.97287111  0.32154171    -0.33500
H549        H  0.92410655  0.00216827  0.28503772     0.27900
H550        H  0.85311703  0.77119352  0.21501827     0.27900
H551        H  0.82195970  0.86732658  0.19456995     0.18500
H552        H  0.94112379  0.90369719  0.31329952     0.18500
C553        C  0.62454418  0.89313736  0.05071527    -0.07300
C554        C  0.67150389  0.91708871  0.04079758    -0.18500
C555        C  0.70437902  0.93179960  0.07628686     0.09900
C556        C  0.69063439  0.92427796  0.12355021    -0.07300
C557        C  0.64369053  0.89849175  0.13347464    -0.18500
C558        C  0.61075336  0.88191978  0.09773164     0.09900
S559        S  0.76328720  0.96486709  0.05934660    -0.33500
S560        S  0.55174179  0.85093648  0.11465691    -0.33500
H561        H  0.54058127  0.81437821  0.08344448     0.27900
H562        H  0.77607842  0.93791240  0.08483037     0.27900
H563        H  0.68277733  0.92593514  0.00499270     0.18500
H564        H  0.63252009  0.89246648  0.16953054     0.18500
C565        C  0.56316776  0.97061826  0.79407537    -0.07300
C566        C  0.58012721  0.01763468  0.80227166    -0.18500
C567        C  0.59484596  0.04936781  0.76537073     0.09900
C568        C  0.59284723  0.03418000  0.71861114    -0.07300
C569        C  0.57399186  0.98682980  0.71060702    -0.18500
C570        C  0.55961748  0.95535542  0.74735077     0.09900
S571        S  0.61837838  0.10886542  0.78076905    -0.33500
S572        S  0.54101454  0.89665479  0.73252964    -0.33500
H573        H  0.57057285  0.89373415  0.76439275     0.27900
H574        H  0.65661905  0.12454439  0.75160732     0.27900
H575        H  0.58338240  0.03000072  0.83790145     0.18500
H576        H  0.57231279  0.97430890  0.67526309     0.18500
C577        C  0.27955831  0.76257218  0.91868875    -0.07300
C578        C  0.30199556  0.76402443  0.87678434    -0.18500
C579        C  0.34959835  0.78780083  0.87325387     0.09900
C580        C  0.37666952  0.81048502  0.91302245    -0.07300
C581        C  0.35406645  0.81154548  0.95410951    -0.18500
C582        C  0.30629735  0.78865287  0.95713300     0.09900
S583        S  0.37278156  0.78511476  0.81740474    -0.33500
S584        S  0.28179194  0.79438359  0.01089609    -0.33500
H585        H  0.24469072  0.79427210  0.98938370     0.27900
H586        H  0.40160312  0.83295491  0.81489299     0.27900
H587        H  0.28227958  0.74483838  0.84657383     0.18500
H588        H  0.37368928  0.82956628  0.98478050     0.18500
C589        C  0.20528405  0.85147135  0.34247429    -0.07300
C590        C  0.17797927  0.80397073  0.33567197    -0.18500
C591        C  0.13133510  0.78371924  0.32904679     0.09900
C592        C  0.11179301  0.81173511  0.32861525    -0.07300
C593        C  0.13900835  0.85919905  0.33556889    -0.18500
C594        C  0.18583433  0.87954898  0.34207123     0.09900
S595        S  0.09867304  0.72214878  0.32268044    -0.33500
S596        S  0.22059159  0.94126272  0.34630301    -0.33500
H597        H  0.18508500  0.95082721  0.34213711     0.27900
H598        H  0.05891480  0.71696254  0.34377512     0.27900
H599        H  0.19283735  0.78224950  0.33711191     0.18500
H600        H  0.12379860  0.88054045  0.33364192     0.18500
C601        C  0.44996383  0.97372495  0.48311397    -0.07300
C602        C  0.47572490  0.95349397  0.49481078    -0.18500
C603        C  0.52122852  0.98024642  0.50776772     0.09900
C604        C  0.54115517  0.02825482  0.51008032    -0.07300
C605        C  0.51548814  0.04853757  0.49815200    -0.18500
C606        C  0.46994771  0.02177400  0.48521323     0.09900
S607        S  0.55240239  0.95125238  0.51868908    -0.33500
S608        S  0.43875316  0.05077820  0.47440928    -0.33500
H609        H  0.39759323  0.01642487  0.49386150     0.27900
H610        H  0.59388604  0.98602249  0.50022199     0.27900
H611        H  0.46075638  0.91663507  0.49223735     0.18500
H612        H  0.53046270  0.08539204  0.50082684     0.18500
C613        C  0.22718911  0.71490943  0.41656201    -0.07300
C614        C  0.21025327  0.69068128  0.37413677    -0.18500
C615        C  0.18454778  0.64252579  0.37227711     0.09900
C616        C  0.17708146  0.61685768  0.41346294    -0.07300
C617        C  0.19034626  0.64107147  0.45621421    -0.18500
C618        C  0.21395985  0.68915495  0.45836307     0.09900
S619        S  0.16205858  0.61634737  0.31625132    -0.33500
S620        S  0.22666481  0.71477571  0.51582556    -0.33500
H621        H  0.21244835  0.74614445  0.50529882     0.27900
H622        H  0.12008691  0.58203013  0.33434250     0.27900
H623        H  0.21773691  0.70930764  0.34170124     0.18500
H624        H  0.18341725  0.62248832  0.48862300     0.18500
C625        C  0.26101660  0.90544323  0.53796754    -0.07300
C626        C  0.26342076  0.89182664  0.58346350    -0.18500
C627        C  0.24699946  0.90526447  0.62206534     0.09900
C628        C  0.22706492  0.93281598  0.61568759    -0.07300
C629        C  0.22217296  0.94413990  0.56996065    -0.18500
C630        C  0.23914123  0.93118630  0.53126144     0.09900
S631        S  0.25269478  0.88626353  0.67875054    -0.33500
S632        S  0.23242614  0.94767945  0.47345276    -0.33500
H633        H  0.21123577  0.97251258  0.48685255     0.27900
H634        H  0.21266601  0.88283331  0.69675949     0.27900
H635        H  0.27978483  0.87194391  0.58927519     0.18500
H636        H  0.20692877  0.96512231  0.56480481     0.18500
C637        C  0.13643939  0.78697082  0.85042977    -0.07300
C638        C  0.15418857  0.82314339  0.88295662    -0.18500
C639        C  0.17280799  0.86823501  0.86851783     0.09900
C640        C  0.17266242  0.87711216  0.82068205    -0.07300
C641        C  0.15386546  0.84087055  0.78825547    -0.18500
C642        C  0.13537523  0.79573439  0.80267057     0.09900
S643        S  0.19810411  0.91279060  0.91239308    -0.33500
S644        S  0.10919523  0.75099081  0.75901621    -0.33500
H645        H  0.07576416  0.71822570  0.78871203     0.27900
H646        H  0.23256311  0.94546494  0.88349172     0.27900
H647        H  0.15538299  0.81638237  0.91967514     0.18500
H648        H  0.15210302  0.84765700  0.75170482     0.18500
C649        C  0.07857151  0.13775508  0.74612948    -0.07300
C650        C  0.07766753  0.11428928  0.78674484    -0.18500
C651        C  0.09893990  0.08804734  0.78907889     0.09900
C652        C  0.12358901  0.08583076  0.75001406    -0.07300
C653        C  0.12561174  0.11031285  0.70968485    -0.18500
C654        C  0.10378406  0.13619898  0.70737703     0.09900
S655        S  0.09014711  0.05442459  0.84096687    -0.33500
S656        S  0.10983481  0.16658897  0.65414906    -0.33500
H657        H  0.11419276  0.20576262  0.67673352     0.27900
H658        H  0.06361592  0.06833504  0.86624868     0.27900
H659        H  0.05794944  0.11448190  0.81641707     0.18500
H660        H  0.14421300  0.10910991  0.67939411     0.18500
C661        C  0.47000264  0.02614296  0.00269055    -0.07300
C662        C  0.51738123  0.04717521  0.99808698    -0.18500
C663        C  0.53819541  0.02103056  0.99472727     0.09900
C664        C  0.51085639  0.97288945  0.99468068    -0.07300
C665        C  0.46344057  0.95182535  0.99912390    -0.18500
C666        C  0.44259955  0.97807163  0.00297320     0.09900
S667        S  0.59962015  0.05100103  0.99226520    -0.33500
S668        S  0.38117278  0.95015338  0.00572031    -0.33500
H669        H  0.37232433  0.90480733  0.00522157     0.27900
H670        H  0.60409698  0.01647158  0.01413221     0.27900
H671        H  0.53851960  0.08419422  0.99950736     0.18500
H672        H  0.44265505  0.91483533  0.99739526     0.18500
C673        C  0.28935006  0.06929171  0.87533199    -0.07300
C674        C  0.33624458  0.09296477  0.86474279    -0.18500
C675        C  0.36970507  0.11214439  0.89985027     0.09900
C676        C  0.35662745  0.10614231  0.94734194    -0.07300
C677        C  0.30984008  0.08509958  0.95783364    -0.18500
C678        C  0.27631562  0.06715872  0.92267842     0.09900
S679        S  0.42843175  0.14003777  0.88199946    -0.33500
S680        S  0.21767656  0.03916879  0.94117502    -0.33500
H681        H  0.20220803  0.00193353  0.91009138     0.27900
H682        H  0.44142825  0.17897463  0.91026107     0.27900
H683        H  0.34699279  0.09558274  0.82866768     0.18500
H684        H  0.29915230  0.08043331  0.99404808     0.18500
C685        C  0.39282477  0.96465468  0.27638864    -0.07300
C686        C  0.41969777  0.01214998  0.28474641    -0.18500
C687        C  0.43542282  0.04404985  0.24819140     0.09900
C688        C  0.42288646  0.02895378  0.20150843    -0.07300
C689        C  0.39667220  0.98138086  0.19300132    -0.18500
C690        C  0.38241023  0.94934254  0.22947556     0.09900
S691        S  0.46719960  0.10384502  0.26387307    -0.33500
S692        S  0.34696338  0.88969848  0.21437328    -0.33500
H693        H  0.37421611  0.87637767  0.23839224     0.27900
H694        H  0.50488463  0.11239795  0.23610875     0.27900
H695        H  0.42755169  0.02470827  0.32041550     0.18500
H696        H  0.38632457  0.96901528  0.15758100     0.18500
C697        C  0.60777253  0.18805705  0.07784613    -0.07300
C698        C  0.63165485  0.20358518  0.03542551    -0.18500
C699        C  0.67956308  0.22911046  0.03352669     0.09900
C700        C  0.70528634  0.23974507  0.07536640    -0.07300
C701        C  0.68130421  0.22129400  0.11735293    -0.18500
C702        C  0.63348853  0.19526361  0.11897362     0.09900
S703        S  0.70622390  0.24834910  0.97705409    -0.33500
S704        S  0.60779120  0.17223941  0.17477362    -0.33500
H705        H  0.57348081  0.13015289  0.15619815     0.27900
H706        H  0.66726475  0.24099251  0.95278572     0.27900
H707        H  0.61262313  0.19729886  0.00341436     0.18500
H708        H  0.69983654  0.22790555  0.14975977     0.18500
C709        C  0.29839704  0.18461984  0.17722067    -0.07300
C710        C  0.31760352  0.16960025  0.21075096    -0.18500
C711        C  0.34390708  0.15056484  0.19762902     0.09900
C712        C  0.35066163  0.14606727  0.14981320    -0.07300
C713        C  0.33068365  0.16022052  0.11620214    -0.18500
C714        C  0.30464903  0.17963385  0.12941415     0.09900
S715        S  0.36609675  0.13106049  0.24330411    -0.33500
S716        S  0.28136955  0.19961990  0.08518282    -0.33500
H717        H  0.29346234  0.18218614  0.04638294     0.27900
H718        H  0.36160159  0.09296563  0.21829002     0.27900
H719        H  0.31025092  0.17057180  0.24734488     0.18500
H720        H  0.33671756  0.15731675  0.07948869     0.18500
C721        C  0.17645688  0.30644231  0.32249546    -0.07300
C722        C  0.16184705  0.32481813  0.28754853    -0.18500
C723        C  0.13945764  0.34859567  0.29881738     0.09900
C724        C  0.13264486  0.35532844  0.34610633    -0.07300
C725        C  0.14655343  0.33627688  0.38105236    -0.18500
C726        C  0.16864373  0.31219541  0.36979518     0.09900
S727        S  0.11845957  0.36743660  0.25145496    -0.33500
S728        S  0.18786354  0.29165894  0.41728354    -0.33500
H729        H  0.22700543  0.29723523  0.39435206     0.27900
H730        H  0.08017634  0.36262480  0.27561971     0.27900
H731        H  0.16629710  0.31903192  0.25109711     0.18500
H732        H  0.14199440  0.34192144  0.41751204     0.18500
C733        C  0.13442403  0.04765099  0.25314874    -0.07300
C734        C  0.12057715  0.02341701  0.21043231    -0.18500
C735        C  0.09781163  0.97535023  0.20816834     0.09900
C736        C  0.08631440  0.94948578  0.24980978    -0.07300
C737        C  0.10292279  0.97374413  0.29222447    -0.18500
C738        C  0.12737385  0.02189613  0.29428697     0.09900
S739        S  0.08456145  0.94972898  0.15075144    -0.33500
S740        S  0.14825096  0.04774997  0.35078418    -0.33500
H741        H  0.19146616  0.08063388  0.33388993     0.27900
H742        H  0.09997041  0.91929042  0.16099044     0.27900
H743        H  0.12671004  0.04198168  0.17811654     0.18500
H744        H  0.09611311  0.95511202  0.32458872     0.18500
C745        C  0.04294202  0.14569796  0.24507907    -0.07300
C746        C  0.01895231  0.12042944  0.20552436    -0.18500
C747        C  0.97142876  0.09420006  0.20498820     0.09900
C748        C  0.94587296  0.09389376  0.24464833    -0.07300
C749        C  0.96981734  0.12206775  0.28297338    -0.18500
C750        C  0.01772986  0.14832262  0.28335256     0.09900
S751        S  0.94686415  0.05815399  0.15412412    -0.33500
S752        S  0.04446669  0.18483731  0.33339251    -0.33500
H753        H  0.08032737  0.21996705  0.30776201     0.27900
H754        H  0.92527466  0.01755314  0.18026145     0.27900
H755        H  0.03740869  0.11798545  0.17573417     0.18500
H756        H  0.95114380  0.12326968  0.31318388     0.18500
C757        C  0.29370517  0.12086865  0.68051563    -0.07300
C758        C  0.30861576  0.12983565  0.63437177    -0.18500
C759        C  0.33947478  0.17423612  0.62064105     0.09900
C760        C  0.35372366  0.21039077  0.65350818    -0.07300
C761        C  0.33920253  0.20133560  0.69984714    -0.18500
C762        C  0.30893518  0.15674522  0.71372059     0.09900
S763        S  0.36140914  0.18144037  0.56185135    -0.33500
S764        S  0.28978926  0.14807726  0.77356902    -0.33500
H765        H  0.24542542  0.11209043  0.76397409     0.27900
H766        H  0.40284406  0.22195024  0.57008924     0.27900
H767        H  0.29745036  0.10185331  0.60941540     0.18500
H768        H  0.35055462  0.22923037  0.72492948     0.18500
C769        C  0.35559135  0.26068442  0.45681834    -0.07300
C770        C  0.37229782  0.26648449  0.41101754    -0.18500
C771        C  0.34308985  0.25372903  0.37217067     0.09900
C772        C  0.29519935  0.23267389  0.37850727    -0.07300
C773        C  0.27828985  0.22413581  0.42425689    -0.18500
C774        C  0.30753750  0.23851716  0.46311286     0.09900
S775        S  0.36973791  0.26720502  0.31561280    -0.33500
S776        S  0.28069277  0.22955299  0.51947695    -0.33500
H777        H  0.31392758  0.22544030  0.54343919     0.27900
H778        H  0.33255186  0.23104368  0.29306552     0.27900
H779        H  0.40878300  0.28397831  0.40529378     0.18500
H780        H  0.24193641  0.20869510  0.42991847     0.18500
C781        C  0.61037104  0.42854834  0.58906747    -0.07300
C782        C  0.63475617  0.44527200  0.54706625    -0.18500
C783        C  0.68261724  0.47139000  0.54616363     0.09900
C784        C  0.70780309  0.47928298  0.58792015    -0.07300
C785        C  0.68336552  0.46603947  0.63019066    -0.18500
C786        C  0.63557697  0.44225157  0.63138233     0.09900
S787        S  0.70902281  0.49392448  0.49056466    -0.33500
S788        S  0.60956530  0.43070390  0.68839446    -0.33500
H789        H  0.57734022  0.44312844  0.67601301     0.27900
H790        H  0.74195496  0.53668788  0.50918597     0.27900
H791        H  0.61650808  0.43737951  0.51427815     0.18500
H792        H  0.70155097  0.47336742  0.66297382     0.18500
C793        C  0.51790593  0.23909434  0.57819115    -0.07300
C794        C  0.55013186  0.24715110  0.54329903    -0.18500
C795        C  0.57769650  0.22753574  0.54473000     0.09900
C796        C  0.57220574  0.19679478  0.58095539    -0.07300
C797        C  0.53830164  0.18675402  0.61469854    -0.18500
C798        C  0.51097824  0.20707632  0.61351230     0.09900
S799        S  0.62273372  0.24794957  0.50200667    -0.33500
S800        S  0.46756775  0.19007001  0.65767399    -0.33500
H801        H  0.43646359  0.19368731  0.62870920     0.27900
H802        H  0.65647053  0.25806143  0.53566940     0.27900
H803        H  0.55664198  0.27198397  0.51636300     0.18500
H804        H  0.53303506  0.16292123  0.64229081     0.18500
C805        C  0.43048082  0.40377185  0.71325140    -0.07300
C806        C  0.40648777  0.42663108  0.70402358    -0.18500
C807        C  0.39044363  0.44331387  0.74011904     0.09900
C808        C  0.39653328  0.43557780  0.78722094    -0.07300
C809        C  0.42207998  0.41435356  0.79650394    -0.18500
C810        C  0.43996299  0.39954700  0.76033945     0.09900
S811        S  0.35804048  0.46958489  0.72382029    -0.33500
S812        S  0.47055935  0.37134576  0.77656411    -0.33500
H813        H  0.50841526  0.39941934  0.74839653     0.27900
H814        H  0.38494826  0.50949577  0.75045573     0.27900
H815        H  0.39881107  0.43022263  0.66819997     0.18500
H816        H  0.42719129  0.40817637  0.83238397     0.18500
C817        C  0.26034862  0.36789950  0.04682768    -0.07300
C818        C  0.23578302  0.32043687  0.03753845    -0.18500
C819        C  0.21907377  0.28796767  0.07360074     0.09900
C820        C  0.22828346  0.30256307  0.12079557    -0.07300
C821        C  0.25222971  0.35009309  0.13010192    -0.18500
C822        C  0.26743915  0.38258281  0.09402838     0.09900
S823        S  0.19047560  0.22841097  0.05694609    -0.33500
S824        S  0.29982793  0.44220794  0.11030593    -0.33500
H825        H  0.27316916  0.45435717  0.08351909     0.27900
H826        H  0.15114182  0.21741990  0.08298776     0.27900
H827        H  0.23052960  0.30843760  0.00163205     0.18500
H828        H  0.26007186  0.36212012  0.16592335     0.18500
C829        C  0.20553316  0.35599877  0.84798173    -0.07300
C830        C  0.17160177  0.34481916  0.88178266    -0.18500
C831        C  0.12575339  0.31912313  0.86982952     0.09900
C832        C  0.11412430  0.30332256  0.82359134    -0.07300
C833        C  0.14810915  0.31322304  0.79019028    -0.18500
C834        C  0.19401715  0.33979552  0.80194686     0.09900
S835        S  0.08404801  0.30973406  0.91412457    -0.33500
S836        S  0.23756204  0.35153598  0.75892303    -0.33500
H837        H  0.20788726  0.32694299  0.72192847     0.27900
H838        H  0.05146228  0.30914440  0.88376226     0.27900
H839        H  0.18093218  0.35794313  0.91714888     0.18500
H840        H  0.13848869  0.29972854  0.75503454     0.18500
C841        C  0.42099107  0.61884447  0.91148998    -0.07300
C842        C  0.43753948  0.64164962  0.95470643    -0.18500
C843        C  0.46264184  0.68961277  0.95837550     0.09900
C844        C  0.47030474  0.71652747  0.91825658    -0.07300
C845        C  0.45702389  0.69390381  0.87463336    -0.18500
C846        C  0.43365858  0.64591240  0.87068559     0.09900
S847        S  0.48412083  0.71399261  0.01529110    -0.33500
S848        S  0.42102301  0.62200467  0.81248491    -0.33500
H849        H  0.43401354  0.58942700  0.82163079     0.27900
H850        H  0.52589573  0.74979267  0.99845698     0.27900
H851        H  0.43019375  0.62205958  0.98646586     0.18500
H852        H  0.46380484  0.71367388  0.84306903     0.18500
C853        C  0.23208544  0.52302095  0.91864896    -0.07300
C854        C  0.22262681  0.53647711  0.87571914    -0.18500
C855        C  0.19868675  0.56016424  0.87313101     0.09900
C856        C  0.18469972  0.57282540  0.91463590    -0.07300
C857        C  0.19123505  0.55637070  0.95724854    -0.18500
C858        C  0.21368404  0.53118125  0.95961003     0.09900
S859        S  0.18817881  0.57365056  0.81557784    -0.33500
S860        S  0.21732662  0.51043243  0.01610655    -0.33500
H861        H  0.20940115  0.46785081  0.99899070     0.27900
H862        H  0.14214546  0.55897671  0.82480308     0.27900
H863        H  0.23509034  0.52965607  0.84353114     0.18500
H864        H  0.17949004  0.56384298  0.98955912     0.18500
C865        C  0.63714368  0.85808406  0.85153909    -0.07300
C866        C  0.64969534  0.86358805  0.80452561    -0.18500
C867        C  0.67837591  0.84877135  0.78752367     0.09900
C868        C  0.69365024  0.82705176  0.81818734    -0.07300
C869        C  0.68196922  0.82247838  0.86542869    -0.18500
C870        C  0.65312921  0.83713864  0.88239166     0.09900
S871        S  0.69516252  0.85991421  0.72700505    -0.33500
S872        S  0.63565438  0.82535589  0.94267505    -0.33500
H873        H  0.59057156  0.81476956  0.93505072     0.27900
H874        H  0.73762798  0.86319757  0.73235821     0.27900
H875        H  0.63761559  0.88011143  0.78116083     0.18500
H876        H  0.69376752  0.80561144  0.88869131     0.18500
C877        C  0.80304614  0.69272422  0.68041957    -0.07300
C878        C  0.85031288  0.71379548  0.67406018    -0.18500
C879        C  0.87125406  0.68774751  0.66964424     0.09900
C880        C  0.84416307  0.63959737  0.67011696    -0.07300
C881        C  0.79715501  0.61856622  0.67824164    -0.18500
C882        C  0.77624332  0.64461688  0.68312597     0.09900
S883        S  0.93256451  0.71779792  0.66519580    -0.33500
S884        S  0.71517928  0.61438939  0.69023332    -0.33500
H885        H  0.70844973  0.64629832  0.66577978     0.27900
H886        H  0.93772556  0.68328603  0.68614825     0.27900
H887        H  0.87130433  0.75085030  0.67428820     0.18500
H888        H  0.77611848  0.58151651  0.67795783     0.18500
C889        C  0.84904862  0.95388674  0.73642017    -0.07300
C890        C  0.84902505  0.97587179  0.77857061    -0.18500
C891        C  0.87049495  0.02377109  0.78251065     0.09900
C892        C  0.89402311  0.05130899  0.74381063    -0.07300
C893        C  0.89067947  0.02929881  0.70073594    -0.18500
C894        C  0.86858482  0.98134392  0.69640326     0.09900
S895        S  0.86641609  0.04734364  0.83781200    -0.33500
S896        S  0.86908761  0.95687156  0.64007134    -0.33500
H897        H  0.88807600  0.99755544  0.61421154     0.27900
H898        H  0.86342127  0.08363862  0.81809925     0.27900
H899        H  0.83277393  0.95558798  0.80928455     0.18500
H900        H  0.90794142  0.04987944  0.67055300     0.18500
C901        C  0.03798177  0.89895489  0.73948139    -0.07300
C902        C  0.01476152  0.89385376  0.69751256    -0.18500
C903        C  0.96724997  0.87289197  0.69596824     0.09900
C904        C  0.94121911  0.85587342  0.73755842    -0.07300
C905        C  0.96425045  0.85692613  0.77858714    -0.18500
C906        C  0.01184709  0.87713497  0.77975425     0.09900
S907        S  0.94318071  0.87267585  0.64009015    -0.33500
S908        S  0.03684405  0.87340851  0.83360968    -0.33500
H909        H  0.07145338  0.86875915  0.81171040     0.27900
H910        H  0.92608601  0.90053983  0.65613708     0.27900
H911        H  0.03387034  0.90923498  0.66590440     0.18500
H912        H  0.94511401  0.84237251  0.81037742     0.18500
C913        C  0.87104465  0.68927094  0.18417695    -0.07300
C914        C  0.86364872  0.68087385  0.13622227    -0.18500
C915        C  0.81982516  0.65356080  0.11890290     0.09900
C916        C  0.78277914  0.63543042  0.15026234    -0.07300
C917        C  0.79013347  0.64348165  0.19820698    -0.18500
C918        C  0.83391824  0.67094421  0.21553506     0.09900
S919        S  0.81367098  0.64153857  0.05698960    -0.33500
S920        S  0.83960300  0.68358442  0.27731486    -0.33500
H921        H  0.87466079  0.72950644  0.27307824     0.27900
H922        H  0.77757701  0.59609190  0.06099334     0.27900
H923        H  0.89226545  0.69494874  0.11227126     0.18500
H924        H  0.76144797  0.62956014  0.22207067     0.18500
C925        C  0.75999692  0.70590952  0.87511364    -0.07300
C926        C  0.74679134  0.65986034  0.86620234    -0.18500
C927        C  0.73060802  0.62703504  0.90202144     0.09900
C928        C  0.72741101  0.64012967  0.94845053    -0.07300
C929        C  0.74198668  0.68665485  0.95724876    -0.18500
C930        C  0.75814708  0.71931178  0.92152913     0.09900
S931        S  0.71101175  0.56854814  0.88523643    -0.33500
S932        S  0.77135499  0.77657920  0.93659386    -0.33500
H933        H  0.81147335  0.79829203  0.90994125     0.27900
H934        H  0.66927747  0.55081470  0.90903655     0.27900
H935        H  0.74702460  0.64889478  0.83056470     0.18500
H936        H  0.73966308  0.69765096  0.99230618     0.18500
C937        C  0.54115039  0.52255457  0.00869892    -0.07300
C938        C  0.50856194  0.51142389  0.04405931    -0.18500
C939        C  0.46255874  0.49144850  0.03335874     0.09900
C940        C  0.44911270  0.48351233  0.98622301    -0.07300
C941        C  0.48177949  0.49491935  0.95088077    -0.18500
C942        C  0.52773231  0.51479806  0.96158138     0.09900
S943        S  0.42282056  0.47463610  0.08128209    -0.33500
S944        S  0.56747892  0.53125817  0.91367398    -0.33500
H945        H  0.60252290  0.57056069  0.93589589     0.27900
H946        H  0.38828291  0.43479939  0.05931271     0.27900
H947        H  0.51878723  0.51650670  0.08041422     0.18500
H948        H  0.47160399  0.48973660  0.91450887     0.18500
C949        C  0.75288137  0.47576625  0.07215213    -0.07300
C950        C  0.77249775  0.47426817  0.11485893    -0.18500
C951        C  0.79754180  0.45184688  0.11902620     0.09900
C952        C  0.80295431  0.42926885  0.07981946    -0.07300
C953        C  0.78653875  0.43395078  0.03644494    -0.18500
C954        C  0.76140543  0.45612682  0.03221513     0.09900
S955        S  0.82180639  0.45370080  0.17526507    -0.33500
S956        S  0.73816908  0.45426996  0.97539561    -0.33500
H957        H  0.69283329  0.43096394  0.99147353     0.27900
H958        H  0.86208671  0.45761514  0.15697314     0.27900
H959        H  0.76765722  0.49005993  0.14577197     0.18500
H960        H  0.79053093  0.41742231  0.00565443     0.18500
C961        C  0.56658797  0.38244815  0.07586271    -0.07300
C962        C  0.56369655  0.35883313  0.11692491    -0.18500
C963        C  0.54236462  0.31107481  0.11782698     0.09900
C964        C  0.52094442  0.28484446  0.07706592    -0.07300
C965        C  0.52175405  0.30824702  0.03647304    -0.18500
C966        C  0.54381256  0.35637581  0.03548694     0.09900
S967        S  0.54857355  0.28686614  0.17108757    -0.33500
S968        S  0.54118353  0.38203097  0.98170040    -0.33500
H969        H  0.53588634  0.41647092  0.00366916     0.27900
H970        H  0.56637395  0.26223663  0.14831363     0.27900
H971        H  0.58116659  0.37780610  0.14816039     0.18500
H972        H  0.50525564  0.28892457  0.00507323     0.18500
C973        C  0.55418406  0.59531800  0.27957323    -0.07300
C974        C  0.56759663  0.56285982  0.28711107    -0.18500
C975        C  0.58512295  0.54793436  0.25070319     0.09900
C976        C  0.59137487  0.56712340  0.20566494    -0.07300
C977        C  0.57696871  0.59888724  0.19814055    -0.18500
C978        C  0.55817672  0.61266042  0.23409975     0.09900
S979        S  0.60313864  0.50796357  0.26512552    -0.33500
S980        S  0.54481221  0.65646484  0.22106269    -0.33500
H981        H  0.50202338  0.63378025  0.24301195     0.27900
H982        H  0.57507004  0.47572668  0.23121573     0.27900
H983        H  0.56572063  0.55007465  0.32205158     0.18500
H984        H  0.58148272  0.61416285  0.16404064     0.18500
C985        C  0.62273732  0.73428478  0.53940506    -0.07300
C986        C  0.60620302  0.72231513  0.58511237    -0.18500
C987        C  0.63576686  0.73707292  0.62377582     0.09900
C988        C  0.68364327  0.76437042  0.61727850    -0.07300
C989        C  0.69986216  0.77877697  0.57168406    -0.18500
C990        C  0.67011895  0.76423102  0.53303965     0.09900
S991        S  0.60995359  0.71942441  0.68052905    -0.33500
S992        S  0.69461687  0.78469564  0.47622552    -0.33500
H993        H  0.65626887  0.78444183  0.45788037     0.27900
H994        H  0.64137315  0.76038895  0.70308804     0.27900
H995        H  0.57001178  0.69967799  0.59067471     0.18500
H996        H  0.73617320  0.80006570  0.56578036     0.18500
C997        C  0.69063199  0.87648345  0.32157558    -0.07300
C998        C  0.64423547  0.85728388  0.31091144    -0.18500
C999        C  0.61342432  0.81096884  0.31709595     0.09900
C1000       C  0.62874089  0.78289258  0.33619104    -0.07300
C1001       C  0.67521255  0.80183660  0.34632692    -0.18500
C1002       C  0.70624345  0.84811945  0.33937349     0.09900
S1003       S  0.55515366  0.79092766  0.30128954    -0.33500
S1004       S  0.76508148  0.86776998  0.35203319    -0.33500
H1005       H  0.76791747  0.89917413  0.38635731     0.27900
H1006       H  0.55361977  0.75870146  0.26875334     0.27900
H1007       H  0.63176591  0.87843173  0.29671073     0.18500
H1008       H  0.68745164  0.78051928  0.36058651     0.18500
C1009       C  0.50769426  0.54295023  0.48395708    -0.07300
C1010       C  0.46175359  0.51637244  0.49694935    -0.18500
C1011       C  0.44288215  0.47029183  0.50789873     0.09900
C1012       C  0.47095119  0.45083408  0.50720407    -0.07300
C1013       C  0.51652699  0.47705763  0.49313347    -0.18500
C1014       C  0.53533597  0.52296283  0.48187008     0.09900
S1015       S  0.38260732  0.43777126  0.52004945    -0.33500
S1016       S  0.59515866  0.55437613  0.46744087    -0.33500
H1017       H  0.60380489  0.59522595  0.48984747     0.27900
H1018       H  0.37589599  0.39640636  0.50065263     0.27900
H1019       H  0.43993867  0.53111395  0.49678079     0.18500
H1020       H  0.53833266  0.46229793  0.49307944     0.18500
C1021       C  0.46426967  0.75627882  0.40972598    -0.07300
C1022       C  0.44283277  0.75700896  0.36817643    -0.18500
C1023       C  0.41783471  0.77933250  0.36530024     0.09900
C1024       C  0.41476505  0.80350212  0.40459418    -0.07300
C1025       C  0.43876735  0.80535949  0.44530804    -0.18500
C1026       C  0.46357540  0.78252699  0.44817053     0.09900
S1027       S  0.38749593  0.77150503  0.31148287    -0.33500
S1028       S  0.49387984  0.78879646  0.50159045    -0.33500
H1029       H  0.53169139  0.79046113  0.47941174     0.27900
H1030       H  0.34470466  0.75164867  0.33364151     0.27900
H1031       H  0.44284444  0.73733078  0.33808222     0.18500
H1032       H  0.43778083  0.82431090  0.47558733     0.18500
C1033       C  0.27215413  0.52209865  0.41837474    -0.07300
C1034       C  0.29400187  0.52377115  0.37577368    -0.18500
C1035       C  0.34170134  0.54537915  0.37207190     0.09900
C1036       C  0.36930318  0.56759225  0.41149713    -0.07300
C1037       C  0.34738474  0.56264693  0.45472015    -0.18500
C1038       C  0.29971880  0.54025428  0.45886346     0.09900
S1039       S  0.36482252  0.54289700  0.31612136    -0.33500
S1040       S  0.27579132  0.53737043  0.51622977    -0.33500
H1041       H  0.31671863  0.55820105  0.54169768     0.27900
H1042       H  0.39946837  0.53682653  0.33496260     0.27900
H1043       H  0.27383319  0.50876264  0.34456720     0.18500
H1044       H  0.36784541  0.57840047  0.48551943     0.18500
loop_ 
_geom_bond_atom_site_label_1 
_geom_bond_atom_site_label_2 
_geom_bond_distance 
_geom_bond_site_symmetry_2 
_ccdc_geom_bond_type 
O1           C16   1.273       .  A
O1           Al9   1.929       .  S
C2           O12   1.274       .  A
C2            O3   1.265       .  A
C2         C1009   1.458       .  S
O3           Al5   1.859       .  S
O4            C6   1.252       .  A
O4           Al5   1.907       .  S
Al5          O13   1.913       .  S
Al5          O15   1.855       .  S
Al5          O14   1.791       .  S
C6           O19   1.257       .  A
C6          C973   1.488       .  S
O7           C17   1.263       .  A
O7           Al9   1.925       .  S
O8           C21   1.264       .  A
O8          Al18   1.924       .  S
Al9          O22   1.882       .  S
Al9          O19   1.924       .  S
Al9          O14   1.787       .  S
O10          C17   1.258       .  A
O10         Al18   1.888       .  S
O11          C20   1.258       .  A
O11         Al18   1.928       .  S
O12         Al18   1.922       .  S
O13          C20   1.253       .  A
O14         Al18   1.787       .  S
O15          C16   1.266       .  A
C16        C1000   1.466       .  S
C17        C1036   1.503       .  S
C20         C985   1.496       .  S
C21          O22   1.258       .  A
C21        C1021   1.497       .  S
O23          C38   1.273       .  A
O23         Al31   1.915       .  S
C24          O34   1.277       .  A
C24          O25   1.268       .  A
C24         C937   1.454       .  S
O25         Al27   1.858       .  S
O26          C28   1.251       .  A
O26         Al27   1.906       .  S
Al27         O35   1.895       .  S
Al27         O37   1.864       .  S
Al27         O36   1.787       .  S
C28          O41   1.254       .  A
C28         C976   1.498       .  S
O29          C39   1.259       .  A
O29         Al31   1.892       .  S
O30          C43   1.264       .  A
O30         Al40   1.915       .  S
Al31         O44   1.900       .  S
Al31         O41   1.925       .  S
Al31         O36   1.782       .  S
O32          C39   1.258       .  A
O32         Al40   1.905       .  S
O33          C42   1.256       .  A
O33         Al40   1.936   1_556  S
O34         Al40   1.923       .  S
O35          C42   1.249   1_554  A
O36         Al40   1.784       .  S
O37          C38   1.268       .  A
C38         C916   1.447       .  S
C39         C961   1.495       .  S
C42         C928   1.503       .  S
C43          O44   1.261       .  A
C43         C949   1.500       .  S
O45          C60   1.276       .  A
O45         Al53   1.924       .  S
C46          O56   1.273       .  A
C46          O47   1.267       .  A
C46         C868   1.445       .  S
O47         Al49   1.863       .  S
O48          C50   1.252       .  A
O48         Al49   1.913       .  S
Al49         O57   1.914       .  S
Al49         O59   1.860       .  S
Al49         O58   1.787       .  S
C50          O63   1.257       .  A
C50         C988   1.504       .  S
O51          C61   1.264       .  A
O51         Al53   1.916       .  S
O52          C65   1.261       .  A
O52         Al62   1.912       .  S
Al53         O66   1.889       .  S
Al53         O63   1.933       .  S
Al53         O58   1.780       .  S
O54          C61   1.260       .  A
O54         Al62   1.896       .  S
O55          C64   1.257       .  A
O55         Al62   1.928       .  S
O56         Al62   1.920       .  S
O57          C64   1.253       .  A
O58         Al62   1.786       .  S
O59          C60   1.267       .  A
C60         C877   1.456       .  S
C61         C889   1.499       .  S
C64         C925   1.491       .  S
C65          O66   1.255       .  A
C65         C904   1.498       .  S
O67          C82   1.260       .  A
O67         Al75   1.897       .  S
C68          O78   1.263       .  A
C68          O69   1.273       .  A
C68         C940   1.455       .  S
O69         Al71   1.925       .  S
O70          C72   1.259       .  A
O70         Al71   1.890       .  S
Al71         O79   1.934   1_556  S
Al71         O81   1.928       .  S
Al71         O80   1.784       .  S
C72          O85   1.263       .  A
C72         C841   1.502       .  S
O73          C83   1.258       .  A
O73         Al75   1.927       .  S
O74          C87   1.262       .  A
O74         Al84   1.856       .  S
Al75         O88   1.927       .  S
Al75         O85   1.922       .  S
Al75         O80   1.785       .  S
O76          C83   1.256       .  A
O76         Al84   1.918       .  S
O77          C86   1.255   1_556  A
O77         Al84   1.913       .  S
O78         Al84   1.853       .  S
O79          C86   1.261       .  A
O80         Al84   1.790       .  S
O81          C82   1.265       .  A
C82         C853   1.505       .  S
C83         C808   1.497       .  S
C86         C817   1.499       .  S
C87          O88   1.273       .  A
C87         C829   1.448       .  S
O89         C104   1.258       .  A
O89         Al97   1.902       .  S
C90         O100   1.265       .  A
C90          O91   1.270       .  A
C90        C1012   1.456       .  S
O91         Al93   1.910       .  S
O92          C94   1.264       .  A
O92         Al93   1.919       .  S
Al93        O101   1.947       .  S
Al93        O103   1.914       .  S
Al93        O102   1.787       .  S
C94         O107   1.260       .  A
C94         C781   1.504       .  S
O95         C105   1.258       .  A
O95         Al97   1.928       .  S
O96         C109   1.261       .  A
O96        Al106   1.859       .  S
Al97        O110   1.912       .  S
Al97        O107   1.900       .  S
Al97        O102   1.794       .  S
O98         C105   1.253       .  A
O98        Al106   1.903       .  S
O99         C108   1.251       .  A
O99        Al106   1.900       .  S
O100       Al106   1.869       .  S
O101        C108   1.264       .  A
O102       Al106   1.791       .  S
O103        C104   1.264       .  A
C104        C793   1.497       .  S
C105        C805   1.497       .  S
C108        C769   1.500       .  S
C109        O110   1.268       .  A
C109        C760   1.445       .  S
O111        C126   1.261       .  A
O111       Al119   1.906       .  S
C112        O122   1.267       .  A
C112        O113   1.271       .  A
C112        C721   1.464       .  S
O113       Al115   1.917       .  S
O114        C116   1.260       .  A
O114       Al115   1.904       .  S
Al115       O123   1.933       .  S
Al115       O125   1.911       .  S
Al115       O124   1.794       .  S
C116        O129   1.262       .  A
C116        C745   1.494       .  S
O117        C127   1.256       .  A
O117       Al119   1.929       .  S
O118        C131   1.267       .  A
O118       Al128   1.876       .  S
Al119       O132   1.907       .  S
Al119       O129   1.899       .  S
Al119       O124   1.791       .  S
O120        C127   1.251       .  A
O120       Al128   1.905       .  S
O121        C130   1.252       .  A
O121       Al128   1.909       .  S
O122       Al128   1.879       .  S
O123        C130   1.259       .  A
O124       Al128   1.793       .  S
O125        C126   1.260       .  A
C126        C733   1.505       .  S
C127        C820   1.502       .  S
C130        C772   1.500       .  S
C131        O132   1.270       .  A
C131        C709   1.457       .  S
O133        C148   1.271       .  A
O133       Al141   1.920       .  S
C134        O144   1.271   1_554  A
C134        O135   1.262       .  A
C134        C661   1.451       .  S
O135       Al137   1.850       .  S
O136        C138   1.257       .  A
O136       Al137   1.922       .  S
Al137       O145   1.909       .  S
Al137       O147   1.855       .  S
Al137       O146   1.792       .  S
C138        O151   1.259       .  A
C138        C688   1.501       .  S
O139        C149   1.262       .  A
O139       Al141   1.918       .  S
O140        C153   1.264       .  A
O140       Al150   1.919       .  S
Al141       O154   1.888       .  S
Al141       O151   1.926       .  S
Al141       O146   1.784       .  S
O142        C149   1.260       .  A
O142       Al150   1.900       .  S
O143        C152   1.260       .  A
O143       Al150   1.934   1_556  S
O144       Al150   1.919   1_556  S
O145        C152   1.255   1_554  A
O146       Al150   1.789       .  S
O147        C148   1.263       .  A
C148        C712   1.455       .  S
C149        C697   1.502       .  S
C152        C676   1.498       .  S
C153        O154   1.257       .  A
C153        C964   1.493       .  S
O155        C170   1.273       .  A
O155       Al163   1.912   1_545  S
C156        O166   1.271       .  A
C156        O157   1.266       .  A
C156        C640   1.453       .  S
O157       Al159   1.870       .  S
O158        C160   1.248       .  A
O158       Al159   1.897       .  S
Al159       O167   1.902   1_565  S
Al159       O169   1.861   1_565  S
Al159       O168   1.790       .  S
C160        O173   1.254       .  A
C160        C628   1.497       .  S
O161        C171   1.264       .  A
O161       Al163   1.905       .  S
O162        C175   1.258       .  A
O162       Al172   1.899   1_545  S
Al163       O176   1.912   1_565  S
Al163       O173   1.926       .  S
Al163       O168   1.792       .  S
O164        C171   1.261       .  A
O164       Al172   1.901       .  S
O165        C174   1.257       .  A
O165       Al172   1.934   1_545  S
O166       Al172   1.916       .  S
O167        C174   1.251       .  A
O168       Al172   1.788       .  S
O169        C170   1.266       .  A
C170        C757   1.444       .  S
C171        C901   1.494       .  S
C174        C673   1.498       .  S
C175        O176   1.259       .  A
C175        C652   1.501       .  S
O177        C192   1.272       .  A
O177       Al185   1.913       .  S
C178        O188   1.270       .  A
C178        O179   1.265       .  A
C178        C589   1.454       .  S
O179       Al181   1.866       .  S
O180        C182   1.251       .  A
O180       Al181   1.904       .  S
Al181       O189   1.901       .  S
Al181       O191   1.873       .  S
Al181       O190   1.795       .  S
C182        O195   1.257       .  A
C182        C625   1.499       .  S
O183        C193   1.259       .  A
O183       Al185   1.906       .  S
O184        C197   1.261       .  A
O184       Al194   1.902       .  S
Al185       O198   1.905       .  S
Al185       O195   1.930       .  S
Al185       O190   1.793       .  S
O186        C193   1.261       .  A
O186       Al194   1.909       .  S
O187        C196   1.257       .  A
O187       Al194   1.931       .  S
O188       Al194   1.904       .  S
O189        C196   1.250       .  A
O190       Al194   1.791       .  S
O191        C192   1.267       .  A
C192        C601   1.460       .  S
C193        C613   1.505       .  S
C196        C685   1.500       .  S
C197        O198   1.261       .  A
C197       C1024   1.498       .  S
O199        C214   1.258       .  A
O199       Al207   1.890       .  S
C200        O210   1.262       .  A
C200        O201   1.272   1_556  A
C200        C664   1.450       .  S
O201       Al203   1.922   1_554  S
O202        C204   1.260       .  A
O202       Al203   1.897       .  S
Al203       O211   1.928   1_556  S
Al203       O213   1.920       .  S
Al203       O212   1.787       .  S
C204        O217   1.262       .  A
C204        C580   1.502       .  S
O205        C215   1.260       .  A
O205       Al207   1.926       .  S
O206        C219   1.261       .  A
O206       Al216   1.856       .  S
Al207       O220   1.914       .  S
Al207       O217   1.915       .  S
Al207       O212   1.783       .  S
O208        C215   1.257       .  A
O208       Al216   1.925       .  S
O209        C218   1.256   1_556  A
O209       Al216   1.912       .  S
O210       Al216   1.849       .  S
O211        C218   1.259       .  A
O212       Al216   1.791       .  S
O213        C214   1.264       .  A
C214        C844   1.497       .  S
C215        C565   1.497       .  S
C218        C553   1.495       .  S
C219        O220   1.269       .  A
C219        C865   1.446       .  S
O221        C236   1.257       .  A
O221       Al229   1.881   1_545  S
C222        O232   1.267       .  A
C222        O223   1.276       .  A
C222        C997   1.468       .  S
O223       Al225   1.935       .  S
O224        C226   1.254       .  A
O224       Al225   1.877       .  S
Al225       O233   1.924   1_565  S
Al225       O235   1.929   1_565  S
Al225       O234   1.784       .  S
C226        O239   1.263       .  A
C226        C541   1.491       .  S
O227        C237   1.256       .  A
O227       Al229   1.925       .  S
O228        C241   1.267       .  A
O228       Al238   1.857   1_545  S
Al229       O242   1.937   1_565  S
Al229       O239   1.932       .  S
Al229       O234   1.784       .  S
O230        C237   1.252       .  A
O230       Al238   1.911       .  S
O231        C240   1.250       .  A
O231       Al238   1.907   1_545  S
O232       Al238   1.849       .  S
O233        C240   1.255       .  A
O234       Al238   1.788       .  S
O235        C236   1.267       .  A
C236        C748   1.497       .  S
C237        C556   1.493       .  S
C240        C529   1.493       .  S
C241        O242   1.276       .  A
C241        C520   1.473       .  S
O243        C258   1.257       .  A
O243       Al251   1.897       .  S
C244        O254   1.270       .  A
C244        O245   1.275       .  A
C244        C604   1.460       .  S
O245       Al247   1.917       .  S
O246        C248   1.259       .  A
O246       Al247   1.892       .  S
Al247       O255   1.929       .  S
Al247       O257   1.907       .  S
Al247       O256   1.783       .  S
C248        O261   1.266       .  A
C248        C796   1.498       .  S
O249        C259   1.257       .  A
O249       Al251   1.937       .  S
O250        C263   1.269       .  A
O250       Al260   1.866       .  S
Al251       O264   1.925       .  S
Al251       O261   1.929       .  S
Al251       O256   1.794       .  S
O252        C259   1.250       .  A
O252       Al260   1.896       .  S
O253        C262   1.250       .  A
O253       Al260   1.909       .  S
O254       Al260   1.875       .  S
O255        C262   1.255       .  A
O256       Al260   1.787       .  S
O257        C258   1.262       .  A
C258        C505   1.491       .  S
C259        C568   1.503       .  S
C262        C532   1.502       .  S
C263        O264   1.276       .  A
C263        C493   1.460       .  S
O265        C280   1.274       .  A
O265       Al273   1.930       .  S
C266        O276   1.271       .  A
C266        O267   1.267       .  A
C266        C457   1.462       .  S
O267       Al269   1.877       .  S
O268        C270   1.253       .  A
O268       Al269   1.905       .  S
Al269       O277   1.904       .  S
Al269       O279   1.872       .  S
Al269       O278   1.789       .  S
C270        O283   1.260       .  A
C270        C484   1.501       .  S
O271        C281   1.265       .  A
O271       Al273   1.924       .  S
O272        C285   1.260       .  A
O272       Al282   1.907       .  S
Al273       O286   1.906       .  S
Al273       O283   1.937       .  S
Al273       O278   1.789       .  S
O274        C281   1.261       .  A
O274       Al282   1.899       .  S
O275        C284   1.260       .  A
O275       Al282   1.933       .  S
O276       Al282   1.916       .  S
O277        C284   1.253       .  A
O278       Al282   1.785       .  S
O279        C280   1.265       .  A
C280        C724   1.465       .  S
C281        C616   1.503       .  S
C284        C469   1.495       .  S
C285        O286   1.260       .  A
C285       C1033   1.505       .  S
O287        C302   1.271       .  A
O287       Al295   1.918       .  S
C288        O298   1.272       .  A
C288        O289   1.265       .  A
C288        C517   1.475       .  S
O289       Al291   1.857       .  S
O290        C292   1.253   1_554  A
O290       Al291   1.908       .  S
Al291       O299   1.905       .  S
Al291       O301   1.859       .  S
Al291       O300   1.791       .  S
C292        O305   1.258       .  A
C292        C433   1.492       .  S
O293        C303   1.261       .  A
O293       Al295   1.913       .  S
O294        C307   1.264       .  A
O294       Al304   1.925       .  S
Al295       O308   1.886       .  S
Al295       O305   1.923   1_554  S
Al295       O300   1.787       .  S
O296        C303   1.261       .  A
O296       Al304   1.905       .  S
O297        C306   1.260       .  A
O297       Al304   1.933       .  S
O298       Al304   1.929       .  S
O299        C306   1.253       .  A
O300       Al304   1.792       .  S
O301        C302   1.262       .  A
C302        C448   1.456       .  S
C303        C700   1.507       .  S
C306        C481   1.493       .  S
C307        O308   1.258       .  A
C307        C952   1.498       .  S
O309        C324   1.273       .  A
O309       Al317   1.928   1_455  S
C310        O320   1.275       .  A
C310        O311   1.265       .  A
C310        C496   1.461       .  S
O311       Al313   1.859       .  S
O312        C314   1.254       .  A
O312       Al313   1.910       .  S
Al313       O321   1.907   1_655  S
Al313       O323   1.855   1_655  S
Al313       O322   1.790       .  S
C314        O327   1.259       .  A
C314        C436   1.494       .  S
O315        C325   1.263       .  A
O315       Al317   1.920       .  S
O316        C329   1.265       .  A
O316       Al326   1.928   1_455  S
Al317       O330   1.889   1_655  S
Al317       O327   1.929       .  S
Al317       O322   1.786       .  S
O318        C325   1.257       .  A
O318       Al326   1.882       .  S
O319        C328   1.257       .  A
O319       Al326   1.923   1_455  S
O320       Al326   1.927       .  S
O321        C328   1.252       .  A
O322       Al326   1.785       .  S
O323        C324   1.263       .  A
C324        C832   1.448       .  S
C325        C892   1.496       .  S
C328        C472   1.490       .  S
C329        O330   1.260       .  A
C329        C649   1.500       .  S
O331        C346   1.259       .  A
O331       Al339   1.891       .  S
C332        O342   1.264       .  A
C332        O333   1.273   1_556  A
C332        C445   1.458       .  S
O333       Al335   1.924   1_554  S
O334        C336   1.259       .  A
O334       Al335   1.896       .  S
Al335       O343   1.931   1_556  S
Al335       O345   1.922       .  S
Al335       O344   1.788       .  S
C336        O349   1.263       .  A
C336        C856   1.507       .  S
O337        C347   1.260       .  A
O337       Al339   1.934       .  S
O338        C351   1.264       .  A
O338       Al348   1.862       .  S
Al339       O352   1.928       .  S
Al339       O349   1.924       .  S
Al339       O344   1.785       .  S
O340        C347   1.255       .  A
O340       Al348   1.913       .  S
O341        C350   1.253   1_556  A
O341       Al348   1.909       .  S
O342       Al348   1.857       .  S
O343        C350   1.259       .  A
O344       Al348   1.789       .  S
O345        C346   1.264       .  A
C346        C577   1.494       .  S
C347        C421   1.502       .  S
C350        C409   1.491       .  S
C351        O352   1.273       .  A
C351        C637   1.455       .  S
O353        C368   1.260       .  A
O353       Al361   1.904   1_455  S
C354        O364   1.263       .  A
C354        O355   1.270       .  A
C354        C913   1.450       .  S
O355       Al357   1.914       .  S
O356        C358   1.259       .  A
O356       Al357   1.900       .  S
Al357       O365   1.929   1_655  S
Al357       O367   1.911   1_655  S
Al357       O366   1.787       .  S
C358        O371   1.265       .  A
C358        C544   1.492       .  S
O359        C369   1.260       .  A
O359       Al361   1.930       .  S
O360        C373   1.263       .  A
O360       Al370   1.857   1_455  S
Al361       O374   1.913   1_655  S
Al361       O371   1.912       .  S
Al361       O366   1.783       .  S
O362        C369   1.255       .  A
O362       Al370   1.917       .  S
O363        C372   1.259       .  A
O363       Al370   1.922   1_455  S
O364       Al370   1.862       .  S
O365        C372   1.260       .  A
O366       Al370   1.792       .  S
O367        C368   1.260       .  A
C368        C736   1.504       .  S
C369        C400   1.495       .  S
C372        C412   1.505       .  S
C373        O374   1.271       .  A
C373        C592   1.451       .  S
O375        C390   1.261       .  A
O375       Al383   1.904       .  S
C376        O386   1.265       .  A
C376        O377   1.272       .  A
C376        C460   1.461       .  S
O377       Al379   1.919       .  S
O378        C380   1.256       .  A
O378       Al379   1.882       .  S
Al379       O387   1.923       .  S
Al379       O389   1.913       .  S
Al379       O388   1.784       .  S
C380        O393   1.265       .  A
C380        C508   1.493       .  S
O381        C391   1.260       .  A
O381       Al383   1.935       .  S
O382        C395   1.266       .  A
O382       Al392   1.865       .  S
Al383       O396   1.920       .  S
Al383       O393   1.926       .  S
Al383       O388   1.789       .  S
O384        C391   1.254       .  A
O384       Al392   1.910       .  S
O385        C394   1.257       .  A
O385       Al392   1.922       .  S
O386       Al392   1.869       .  S
O387        C394   1.257       .  A
O388       Al392   1.791       .  S
O389        C390   1.261       .  A
C390        C784   1.503       .  S
C391        C424   1.495       .  S
C394        C397   1.506       .  S
C395        O396   1.272       .  A
C395        C880   1.457       .  S
C397        C398   1.409       .  A
C397        C402   1.420       .  A
C398        C399   1.407       .  A
C398        H407   1.084       .  S
C399        C400   1.414       .  A
C399        S403   1.800       .  S
C400        C401   1.406       .  A
C401        C402   1.411       .  A
C401        H408   1.083       .  S
C402        S404   1.799       .  S
S403        H406   1.405       .  S
S404        H405   1.406       .  S
C409        C410   1.406       .  A
C409        C414   1.413       .  A
C410        C411   1.410       .  A
C410        H419   1.084       .  S
C411        C412   1.419       .  A
C411        S415   1.797       .  S
C412        C413   1.410       .  A
C413        C414   1.406       .  A
C413        H420   1.084       .  S
C414        S416   1.801       .  S
S415        H418   1.405       .  S
S416        H417   1.405       .  S
C421        C422   1.410   1_455  A
C421        C426   1.418       .  A
C422        C423   1.407       .  A
C422        H431   1.084       .  S
C423        C424   1.413       .  A
C423        S427   1.800       .  S
C424        C425   1.408   1_655  A
C425        C426   1.411       .  A
C425        H432   1.084       .  S
C426        S428   1.800       .  S
S427        H430   1.405       .  S
S428        H429   1.406       .  S
C433        C434   1.403       .  A
C433        C438   1.415       .  A
C434        C435   1.409       .  A
C434        H443   1.083       .  S
C435        C436   1.417       .  A
C435        S439   1.807       .  S
C436        C437   1.405       .  A
C437        C438   1.411       .  A
C437        H444   1.083       .  S
C438        S440   1.806   1_556  S
S439        H442   1.407       .  S
S440        H441   1.407       .  S
C445        C446   1.403   1_556  A
C445        C450   1.410   1_455  A
C446        C447   1.395       .  A
C446        H455   1.083       .  S
C447        C448   1.409   1_455  A
C447        S451   1.808       .  S
C448        C449   1.401       .  A
C449        C450   1.388   1_554  A
C449        H456   1.084       .  S
C450        S452   1.805       .  S
S451        H454   1.407       .  S
S452        H453   1.407   1_556  S
C457        C458   1.404       .  A
C457        C462   1.409   1_455  A
C458        C459   1.392       .  A
C458        H467   1.085       .  S
C459        C460   1.410   1_455  A
C459        S463   1.804       .  S
C460        C461   1.403       .  A
C461        C462   1.392       .  A
C461        H468   1.085       .  S
C462        S464   1.803       .  S
S463        H466   1.407       .  S
S464        H465   1.407       .  S
C469        C470   1.405       .  A
C469        C474   1.419       .  A
C470        C471   1.408       .  A
C470        H479   1.083       .  S
C471        C472   1.417       .  A
C471        S475   1.802       .  S
C472        C473   1.402       .  A
C473        C474   1.408       .  A
C473        H480   1.083       .  S
C474        S476   1.808       .  S
S475        H478   1.404       .  S
S476        H477   1.407       .  S
C481        C482   1.401       .  A
C481        C486   1.416   1_655  A
C482        C483   1.410       .  A
C482        H491   1.083       .  S
C483        C484   1.421   1_655  A
C483        S487   1.806       .  S
C484        C485   1.406       .  A
C485        C486   1.409       .  A
C485        H492   1.084       .  S
C486        S488   1.801       .  S
S487        H490   1.407       .  S
S488        H489   1.407   1_455  S
C493        C494   1.404       .  A
C493        C498   1.408       .  A
C494        C495   1.392       .  A
C494        H503   1.084       .  S
C495        C496   1.408       .  A
C495        S499   1.804       .  S
C496        C497   1.405       .  A
C497        C498   1.392       .  A
C497        H504   1.084       .  S
C498        S500   1.803       .  S
S499        H502   1.408       .  S
S500        H501   1.407       .  S
C505        C506   1.402       .  A
C505        C510   1.418       .  A
C506        C507   1.398       .  A
C506        H515   1.084       .  S
C507        C508   1.421       .  A
C507        S511   1.804       .  S
C508        C509   1.406       .  A
C509        C510   1.407       .  A
C509        H516   1.084       .  S
C510        S512   1.803       .  S
S511        H514   1.408       .  S
S512        H513   1.408       .  S
C517        C518   1.405       .  A
C517        C522   1.414       .  A
C518        C519   1.393       .  A
C518        H527   1.082       .  S
C519        C520   1.413       .  A
C519        S523   1.809       .  S
C520        C521   1.405       .  A
C521        C522   1.396       .  A
C521        H528   1.082       .  S
C522        S524   1.810       .  S
S523        H526   1.407       .  S
S524        H525   1.406       .  S
C529        C530   1.403       .  A
C529        C534   1.416       .  A
C530        C531   1.408       .  A
C530        H539   1.084       .  S
C531        C532   1.421       .  A
C531        S535   1.802       .  S
C532        C533   1.407       .  A
C533        C534   1.410       .  A
C533        H540   1.083       .  S
C534        S536   1.802       .  S
S535        H538   1.403       .  S
S536        H537   1.406       .  S
C541        C542   1.406       .  A
C541        C546   1.419       .  A
C542        C543   1.411       .  A
C542        H551   1.084       .  S
C543        C544   1.420       .  A
C543        S547   1.802       .  S
C544        C545   1.402       .  A
C545        C546   1.395       .  A
C545        H552   1.084       .  S
C546        S548   1.804       .  S
S547        H550   1.406       .  S
S548        H549   1.406   1_565  S
C553        C554   1.407       .  A
C553        C558   1.415       .  A
C554        C555   1.405       .  A
C554        H563   1.084       .  S
C555        C556   1.413       .  A
C555        S559   1.799       .  S
C556        C557   1.409       .  A
C557        C558   1.409       .  A
C557        H564   1.084       .  S
C558        S560   1.799       .  S
S559        H562   1.406       .  S
S560        H561   1.407       .  S
C565        C566   1.408   1_565  A
C565        C570   1.413       .  A
C566        C567   1.413       .  A
C566        H575   1.084       .  S
C567        C568   1.419       .  A
C567        S571   1.800       .  S
C568        C569   1.409   1_545  A
C569        C570   1.405       .  A
C569        H576   1.084       .  S
C570        S572   1.799       .  S
S571        H574   1.404       .  S
S572        H573   1.404       .  S
C577        C578   1.407       .  A
C577        C582   1.414       .  A
C578        C579   1.401       .  A
C578        H587   1.084       .  S
C579        C580   1.419       .  A
C579        S583   1.802       .  S
C580        C581   1.413       .  A
C581        C582   1.406       .  A
C581        H588   1.083       .  S
C582        S584   1.802   1_556  S
S583        H586   1.408       .  S
S584        H585   1.408   1_554  S
C589        C590   1.403       .  A
C589        C594   1.407       .  A
C590        C591   1.388       .  A
C590        H599   1.084       .  S
C591        C592   1.408       .  A
C591        S595   1.805       .  S
C592        C593   1.402       .  A
C593        C594   1.393       .  A
C593        H600   1.083       .  S
C594        S596   1.808       .  S
S595        H598   1.407       .  S
S596        H597   1.407       .  S
C601        C602   1.403       .  A
C601        C606   1.410   1_565  A
C602        C603   1.392       .  A
C602        H611   1.084       .  S
C603        C604   1.409   1_565  A
C603        S607   1.804       .  S
C604        C605   1.403       .  A
C605        C606   1.393       .  A
C605        H612   1.084       .  S
C606        S608   1.804       .  S
S607        H610   1.407       .  S
S608        H609   1.407       .  S
C613        C614   1.411       .  A
C613        C618   1.420       .  A
C614        C615   1.407       .  A
C614        H623   1.083       .  S
C615        C616   1.417       .  A
C615        S619   1.801       .  S
C616        C617   1.409       .  A
C617        C618   1.404       .  A
C617        H624   1.083       .  S
C618        S620   1.802       .  S
S619        H622   1.408       .  S
S620        H621   1.408       .  S
C625        C626   1.404       .  A
C625        C630   1.419       .  A
C626        C627   1.408       .  A
C626        H635   1.084       .  S
C627        C628   1.418       .  A
C627        S631   1.801       .  S
C628        C629   1.404       .  A
C629        C630   1.412       .  A
C629        H636   1.083       .  S
C630        S632   1.807       .  S
S631        H634   1.403       .  S
S632        H633   1.406       .  S
C637        C638   1.402       .  A
C637        C642   1.408       .  A
C638        C639   1.390       .  A
C638        H647   1.085       .  S
C639        C640   1.407       .  A
C639        S643   1.803       .  S
C640        C641   1.401       .  A
C641        C642   1.392       .  A
C641        H648   1.083       .  S
C642        S644   1.805       .  S
S643        H646   1.407       .  S
S644        H645   1.407       .  S
C649        C650   1.408       .  A
C649        C654   1.416       .  A
C650        C651   1.404       .  A
C650        H659   1.082       .  S
C651        C652   1.419       .  A
C651        S655   1.812       .  S
C652        C653   1.411       .  A
C653        C654   1.409       .  A
C653        H660   1.084       .  S
C654        S656   1.801       .  S
S655        H658   1.406       .  S
S656        H657   1.408       .  S
C661        C662   1.401   1_554  A
C661        C666   1.407   1_545  A
C662        C663   1.388       .  A
C662        H671   1.084       .  S
C663        C664   1.409   1_545  A
C663        S667   1.805       .  S
C664        C665   1.402       .  A
C665        C666   1.393   1_556  A
C665        H672   1.083       .  S
C666        S668   1.809       .  S
S667        H670   1.407   1_556  S
S668        H669   1.406       .  S
C673        C674   1.410       .  A
C673        C678   1.416       .  A
C674        C675   1.408       .  A
C674        H683   1.084       .  S
C675        C676   1.414       .  A
C675        S679   1.799       .  S
C676        C677   1.409       .  A
C677        C678   1.409       .  A
C677        H684   1.084       .  S
C678        S680   1.802       .  S
S679        H682   1.406       .  S
S680        H681   1.403       .  S
C685        C686   1.408   1_565  A
C685        C690   1.416       .  A
C686        C687   1.408       .  A
C686        H695   1.084       .  S
C687        C688   1.416       .  A
C687        S691   1.799       .  S
C688        C689   1.409   1_545  A
C689        C690   1.411       .  A
C689        H696   1.084       .  S
C690        S692   1.799       .  S
S691        H694   1.407       .  S
S692        H693   1.406       .  S
C697        C698   1.409       .  A
C697        C702   1.416       .  A
C698        C699   1.408       .  A
C698        H707   1.082       .  S
C699        C700   1.421       .  A
C699        S703   1.809   1_554  S
C700        C701   1.411       .  A
C701        C702   1.406       .  A
C701        H708   1.082       .  S
C702        S704   1.803       .  S
S703        H706   1.407       .  S
S704        H705   1.408       .  S
C709        C710   1.402       .  A
C709        C714   1.406       .  A
C710        C711   1.391       .  A
C710        H719   1.081       .  S
C711        C712   1.407       .  A
C711        S715   1.805       .  S
C712        C713   1.403       .  A
C713        C714   1.393       .  A
C713        H720   1.084       .  S
C714        S716   1.808       .  S
S715        H718   1.407       .  S
S716        H717   1.407       .  S
C721        C722   1.404       .  A
C721        C726   1.410       .  A
C722        C723   1.395       .  A
C722        H731   1.084       .  S
C723        C724   1.409       .  A
C723        S727   1.804       .  S
C724        C725   1.405       .  A
C725        C726   1.395       .  A
C725        H732   1.084       .  S
C726        S728   1.805       .  S
S727        H730   1.408       .  S
S728        H729   1.407       .  S
C733        C734   1.409       .  A
C733        C738   1.420       .  A
C734        C735   1.404   1_545  A
C734        H743   1.083       .  S
C735        C736   1.419       .  A
C735        S739   1.801       .  S
C736        C737   1.410       .  A
C737        C738   1.406   1_565  A
C737        H744   1.084       .  S
C738        S740   1.801       .  S
S739        H742   1.407       .  S
S740        H741   1.408       .  S
C745        C746   1.402       .  A
C745        C750   1.418       .  A
C746        C747   1.397   1_455  A
C746        H755   1.084       .  S
C747        C748   1.424       .  A
C747        S751   1.804       .  S
C748        C749   1.407       .  A
C749        C750   1.408   1_655  A
C749        H756   1.083       .  S
C750        S752   1.803       .  S
S751        H754   1.408       .  S
S752        H753   1.408       .  S
C757        C758   1.394       .  A
C757        C762   1.411       .  A
C758        C759   1.388       .  A
C758        H767   1.085       .  S
C759        C760   1.414       .  A
C759        S763   1.807       .  S
C760        C761   1.396       .  A
C761        C762   1.389       .  A
C761        H768   1.084       .  S
C762        S764   1.804       .  S
S763        H766   1.401       .  S
S764        H765   1.405       .  S
C769        C770   1.403       .  A
C769        C774   1.424       .  A
C770        C771   1.408       .  A
C770        H779   1.084       .  S
C771        C772   1.422       .  A
C771        S775   1.799       .  S
C772        C773   1.401       .  A
C773        C774   1.407       .  A
C773        H780   1.084       .  S
C774        S776   1.802       .  S
S775        H778   1.393       .  S
S776        H777   1.394       .  S
C781        C782   1.409       .  A
C781        C786   1.421       .  A
C782        C783   1.407       .  A
C782        H791   1.083       .  S
C783        C784   1.419       .  A
C783        S787   1.801       .  S
C784        C785   1.408       .  A
C785        C786   1.403       .  A
C785        H792   1.084       .  S
C786        S788   1.803       .  S
S787        H790   1.408       .  S
S788        H789   1.408       .  S
C793        C794   1.403       .  A
C793        C798   1.420       .  A
C794        C795   1.399       .  A
C794        H803   1.084       .  S
C795        C796   1.421       .  A
C795        S799   1.803       .  S
C796        C797   1.407       .  A
C797        C798   1.410       .  A
C797        H804   1.084       .  S
C798        S800   1.802       .  S
S799        H802   1.406       .  S
S800        H801   1.404       .  S
C805        C806   1.409       .  A
C805        C810   1.415       .  A
C806        C807   1.407       .  A
C806        H815   1.084       .  S
C807        C808   1.414       .  A
C807        S811   1.799       .  S
C808        C809   1.409       .  A
C809        C810   1.409       .  A
C809        H816   1.084       .  S
C810        S812   1.799       .  S
S811        H814   1.407       .  S
S812        H813   1.407       .  S
C817        C818   1.408       .  A
C817        C822   1.415       .  A
C818        C819   1.409       .  A
C818        H827   1.084       .  S
C819        C820   1.416       .  A
C819        S823   1.799       .  S
C820        C821   1.410       .  A
C821        C822   1.410       .  A
C821        H828   1.084       .  S
C822        S824   1.799       .  S
S823        H826   1.406       .  S
S824        H825   1.406       .  S
C829        C830   1.403       .  A
C829        C834   1.403       .  A
C830        C831   1.391       .  A
C830        H839   1.085       .  S
C831        C832   1.405       .  A
C831        S835   1.805       .  S
C832        C833   1.403       .  A
C833        C834   1.393       .  A
C833        H840   1.083       .  S
C834        S836   1.807       .  S
S835        H838   1.407       .  S
S836        H837   1.407       .  S
C841        C842   1.412       .  A
C841        C846   1.418       .  A
C842        C843   1.403       .  A
C842        H851   1.083       .  S
C843        C844   1.414       .  A
C843        S847   1.803   1_556  S
C844        C845   1.410       .  A
C845        C846   1.404       .  A
C845        H852   1.083       .  S
C846        S848   1.802       .  S
S847        H850   1.408   1_554  S
S848        H849   1.408       .  S
C853        C854   1.411       .  A
C853        C858   1.416       .  A
C854        C855   1.406       .  A
C854        H863   1.083       .  S
C855        C856   1.419       .  A
C855        S859   1.802       .  S
C856        C857   1.413       .  A
C857        C858   1.406       .  A
C857        H864   1.083       .  S
C858        S860   1.802   1_556  S
S859        H862   1.408       .  S
S860        H861   1.408   1_554  S
C865        C866   1.396       .  A
C865        C870   1.411       .  A
C866        C867   1.388       .  A
C866        H875   1.084       .  S
C867        C868   1.411       .  A
C867        S871   1.806       .  S
C868        C869   1.397       .  A
C869        C870   1.389       .  A
C869        H876   1.085       .  S
C870        S872   1.805       .  S
S871        H874   1.402       .  S
S872        H873   1.406       .  S
C877        C878   1.403       .  A
C877        C882   1.409       .  A
C878        C879   1.391       .  A
C878        H887   1.084       .  S
C879        C880   1.409       .  A
C879        S883   1.805       .  S
C880        C881   1.403       .  A
C881        C882   1.391       .  A
C881        H888   1.084       .  S
C882        S884   1.804       .  S
S883        H886   1.408       .  S
S884        H885   1.407       .  S
C889        C890   1.412       .  A
C889        C894   1.417       .  A
C890        C891   1.404   1_565  A
C890        H899   1.084       .  S
C891        C892   1.413       .  A
C891        S895   1.802       .  S
C892        C893   1.409       .  A
C893        C894   1.405   1_545  A
C893        H900   1.082       .  S
C894        S896   1.810       .  S
S895        H898   1.408       .  S
S896        H897   1.407       .  S
C901        C902   1.404       .  A
C901        C906   1.418       .  A
C902        C903   1.400   1_455  A
C902        H911   1.084       .  S
C903        C904   1.422       .  A
C903        S907   1.802       .  S
C904        C905   1.408       .  A
C905        C906   1.405   1_655  A
C905        H912   1.084       .  S
C906        S908   1.803       .  S
S907        H910   1.408       .  S
S908        H909   1.408       .  S
C913        C914   1.398       .  A
C913        C918   1.412       .  A
C914        C915   1.389       .  A
C914        H923   1.084       .  S
C915        C916   1.410       .  A
C915        S919   1.805       .  S
C916        C917   1.397       .  A
C917        C918   1.389       .  A
C917        H924   1.084       .  S
C918        S920   1.805       .  S
S919        H922   1.406       .  S
S920        H921   1.406       .  S
C925        C926   1.407       .  A
C925        C930   1.412       .  A
C926        C927   1.411       .  A
C926        H935   1.084       .  S
C927        C928   1.418       .  A
C927        S931   1.800       .  S
C928        C929   1.411       .  A
C929        C930   1.405       .  A
C929        H936   1.084       .  S
C930        S932   1.802       .  S
S931        H934   1.406       .  S
S932        H933   1.404       .  S
C937        C938   1.404       .  A
C937        C942   1.407   1_554  A
C938        C939   1.390       .  A
C938        H947   1.084       .  S
C939        C940   1.408   1_554  A
C939        S943   1.804       .  S
C940        C941   1.404       .  A
C941        C942   1.389       .  A
C941        H948   1.084       .  S
C942        S944   1.805       .  S
S943        H946   1.407       .  S
S944        H945   1.408       .  S
C949        C950   1.412       .  A
C949        C954   1.418       .  A
C950        C951   1.406       .  A
C950        H959   1.084       .  S
C951        C952   1.414       .  A
C951        S955   1.802       .  S
C952        C953   1.409       .  A
C953        C954   1.402       .  A
C953        H960   1.084       .  S
C954        S956   1.801   1_554  S
S955        H958   1.408       .  S
S956        H957   1.408       .  S
C961        C962   1.405       .  A
C961        C966   1.419       .  A
C962        C963   1.397       .  A
C962        H971   1.084       .  S
C963        C964   1.420       .  A
C963        S967   1.804       .  S
C964        C965   1.407       .  A
C965        C966   1.407       .  A
C965        H972   1.083       .  S
C966        S968   1.802   1_554  S
S967        H970   1.408       .  S
S968        H969   1.408   1_556  S
C973        C974   1.406       .  A
C973        C978   1.413       .  A
C974        C975   1.409       .  A
C974        H983   1.084       .  S
C975        C976   1.417       .  A
C975        S979   1.798       .  S
C976        C977   1.409       .  A
C977        C978   1.404       .  A
C977        H984   1.084       .  S
C978        S980   1.801       .  S
S979        H982   1.407       .  S
S980        H981   1.405       .  S
C985        C986   1.403       .  A
C985        C990   1.417       .  A
C986        C987   1.408       .  A
C986        H995   1.084       .  S
C987        C988   1.421       .  A
C987        S991   1.802       .  S
C988        C989   1.408       .  A
C989        C990   1.411       .  A
C989        H996   1.083       .  S
C990        S992   1.803       .  S
S991        H994   1.404       .  S
S992        H993   1.407       .  S
C997        C998   1.405       .  A
C997       C1002   1.413       .  A
C998        C999   1.388       .  A
C998       H1007   1.084       .  S
C999       C1000   1.411       .  A
C999       S1003   1.801       .  S
C1000      C1001   1.405       .  A
C1001      C1002   1.392       .  A
C1001      H1008   1.084       .  S
C1002      S1004   1.800       .  S
S1003      H1006   1.408       .  S
S1004      H1005   1.407       .  S
C1009      C1010   1.403       .  A
C1009      C1014   1.411       .  A
C1010      C1011   1.392       .  A
C1010      H1019   1.085       .  S
C1011      C1012   1.409       .  A
C1011      S1015   1.804       .  S
C1012      C1013   1.401       .  A
C1013      C1014   1.389       .  A
C1013      H1020   1.085       .  S
C1014      S1016   1.804       .  S
S1015      H1018   1.408       .  S
S1016      H1017   1.407       .  S
C1021      C1022   1.408       .  A
C1021      C1026   1.415       .  A
C1022      C1023   1.399       .  A
C1022      H1031   1.084       .  S
C1023      C1024   1.419       .  A
C1023      S1027   1.803       .  S
C1024      C1025   1.411       .  A
C1025      C1026   1.408       .  A
C1025      H1032   1.084       .  S
C1026      S1028   1.801       .  S
S1027      H1030   1.408       .  S
S1028      H1029   1.408       .  S
C1033      C1034   1.412       .  A
C1033      C1038   1.421       .  A
C1034      C1035   1.407       .  A
C1034      H1043   1.083       .  S
C1035      C1036   1.415       .  A
C1035      S1039   1.801       .  S
C1036      C1037   1.409       .  A
C1037      C1038   1.406       .  A
C1037      H1044   1.081       .  S
C1038      S1040   1.812       .  S
S1039      H1042   1.408       .  S
S1040      H1041   1.406       .  S
