geometry optimzed in LAMMPS
_audit_creation_date              2020-11-30 
_audit_creation_method            'lammps2cif' 
_symmetry_space_group_name_H-M    'P1' 
_symmetry_Int_Tables_number       1 
_symmetry_cell_setting            triclinic 
loop_ 
_symmetry_equiv_pos_as_xyz 
  x,y,z 
_cell_length_a                    44.90563777 
_cell_length_b                    45.49453110481408 
_cell_length_c                    55.356299294661596 
_cell_angle_alpha                 90.06565636243883 
_cell_angle_beta                  90.01713858681951 
_cell_angle_gamma                 119.23031904493908 
loop_ 
_atom_site_label 
_atom_site_type_symbol 
_atom_site_fract_x 
_atom_site_fract_y 
_atom_site_fract_z 
_atom_site_charge 
O1          O  0.32291818  0.22098299  0.94433574    -0.78400
C2          C  0.40945402  0.20785763  0.95268101     0.82700
O3          O  0.36189530  0.21920647  0.86200102    -0.79500
O4          O  0.37946144  0.13044186  0.89610749    -0.81000
O5          O  0.27808830  0.10243176  0.94231571    -0.80800
O6          O  0.27430637  0.17248629  0.94348133    -0.79400
Zn7        Zn  0.35565668  0.21439745  0.92325573     1.55700
O8          O  0.32889013  0.10521325  0.94423998    -0.80800
Cd9        Cd  0.28662321  0.14345084  0.92140238     1.59700
Cd10       Cd  0.33703078  0.16939097  0.87411893     1.59600
O11         O  0.25396524  0.12760972  0.89223870    -0.80800
O12         O  0.33504673  0.16896758  0.91042478    -1.91300
Cd13       Cd  0.35996818  0.14626647  0.92348312     1.59900
O14         O  0.28736832  0.14292235  0.85954359    -0.80700
O15         O  0.39931993  0.17770134  0.94590388    -0.79400
C16         C  0.37388623  0.24710572  0.87344904     0.83100
C17         C  0.29218044  0.20253699  0.95114670     0.82800
O18         O  0.39550084  0.22451906  0.94485760    -0.78300
C19         C  0.29756988  0.09153021  0.95016396     0.83600
O20         O  0.37217578  0.24819440  0.89638436    -0.78400
C21         C  0.25779457  0.12871907  0.86937660     0.83700
C22         C  0.38003491  0.13301424  0.87319801     0.84100
O23         O  0.36565085  0.14735494  0.86212240    -0.80900
O24         O  0.39620063  0.22230328  0.58723989    -0.78400
C25         C  0.29589288  0.20724437  0.57943371     0.82700
O26         O  0.35329615  0.21628643  0.66987678    -0.79500
O27         O  0.25006665  0.12587968  0.63234671    -0.81000
O28         O  0.32708865  0.10193713  0.58808752    -0.80800
O29         O  0.39841471  0.17454149  0.58801666    -0.79400
Zn30       Zn  0.35679879  0.21453653  0.60866468     1.55700
O31         O  0.27962616  0.10548304  0.58484065    -0.80800
Cd32       Cd  0.35754629  0.14378757  0.60944659     1.59700
Cd33       Cd  0.32961975  0.16723252  0.65642857     1.59600
O34         O  0.37511085  0.12917744  0.63894430    -0.80800
O35         O  0.33323640  0.16834980  0.62028981    -1.91300
Cd36       Cd  0.28672491  0.14488415  0.60620980     1.59900
O37         O  0.35331549  0.14147166  0.67122343    -0.80700
O38         O  0.27768462  0.17626897  0.58472489    -0.79400
C39         C  0.37046058  0.24474668  0.65944709     0.83100
C40         C  0.40956735  0.20455944  0.58051875     0.82800
O41         O  0.32587050  0.22491101  0.58800189    -0.78300
C42         C  0.29720697  0.09140114  0.57952314     0.83600
O43         O  0.37438998  0.24720261  0.63658609    -0.78400
C44         C  0.37078551  0.12915555  0.66171272     0.83700
C45         C  0.25078982  0.12789239  0.65526314     0.84100
O46         O  0.27868743  0.14335768  0.66707491    -0.80900
C47         C  0.00182508  0.49890668  0.78853466     0.45600
H48         H  0.50400399  0.49955379  0.80852413    -0.03400
C49         C  0.99688441  0.49731690  0.74162448     0.45600
H50         H  0.99446418  0.49662989  0.72163561    -0.03400
C51         C  0.03660158  0.01565677  0.77575707    -0.17100
C52         C  0.48287697  0.46293631  0.77808765    -0.16900
C53         C  0.48336319  0.01736974  0.77862235    -0.17300
C54         C  0.03399118  0.01563970  0.75089415    -0.17200
C55         C  0.48009515  0.46216639  0.75328733    -0.16800
C56         C  0.47990018  0.01561875  0.75388829    -0.17100
O57         O  0.17563316  0.28225173  0.44424844    -0.78400
C58         C  0.09033794  0.29730905  0.45170355     0.82700
O59         O  0.13996282  0.28797450  0.36099190    -0.79500
O60         O  0.12189120  0.37508151  0.39569114    -0.81000
O61         O  0.22332023  0.40203753  0.44254915    -0.80800
O62         O  0.22364657  0.33125159  0.44528037    -0.79400
Zn63       Zn  0.14420993  0.29018833  0.42251105     1.55700
O64         O  0.17281816  0.39988983  0.44460521    -0.80800
Cd65       Cd  0.21366404  0.36049752  0.42220458     1.59700
Cd66       Cd  0.16574327  0.33734568  0.37413786     1.59600
O67         O  0.24746796  0.37469519  0.39401808    -0.80800
O68         O  0.16575047  0.33608684  0.41043381    -1.91300
Cd69       Cd  0.14113507  0.35914868  0.42335440     1.59900
O70         O  0.21564103  0.36103787  0.36061759    -0.80700
O71         O  0.10141720  0.32779794  0.44544119    -0.79400
C72         C  0.12851158  0.25968525  0.37180306     0.83100
C73         C  0.20571644  0.30094773  0.45224797     0.82800
O74         O  0.10361171  0.28012028  0.44357100    -0.78300
C75         C  0.20416680  0.41317452  0.45056335     0.83600
O76         O  0.12952874  0.25763465  0.39473211    -0.78400
C77         C  0.24467398  0.37378039  0.37109632     0.83700
C78         C  0.12501809  0.37599168  0.37279253     0.84100
O79         O  0.14162023  0.36381540  0.36186554    -0.80900
O80         O  0.10182361  0.28493943  0.08841979    -0.78400
C81         C  0.20195688  0.29605485  0.07900032     0.82700
O82         O  0.14459723  0.28722753  0.16920131    -0.79500
O83         O  0.24941806  0.37650469  0.13505473    -0.81000
O84         O  0.17704804  0.40277388  0.08652773    -0.80800
O85         O  0.10230873  0.33402550  0.08869069    -0.79400
Zn86       Zn  0.14183023  0.29104631  0.10811979     1.55700
O87         O  0.22431620  0.39862556  0.08512022    -0.80800
Cd88       Cd  0.14536256  0.36355944  0.10893411     1.59700
Cd89       Cd  0.16801426  0.33643671  0.15655042     1.59600
O90         O  0.13207503  0.38294390  0.13789547    -0.80800
O91         O  0.16702431  0.33679452  0.12030801    -1.91300
Cd92       Cd  0.21444910  0.35872137  0.10743048     1.59900
O93         O  0.14294160  0.36122566  0.17074946    -0.80700
O94         O  0.22232285  0.32572230  0.08646220    -0.79400
C95         C  0.12827233  0.25908071  0.15822782     0.83100
C96         C  0.08931497  0.30346854  0.08187264     0.82800
O97         O  0.17094049  0.28030076  0.08587444    -0.78300
C98         C  0.20706975  0.41263988  0.07859131     0.83600
O99         O  0.12475711  0.25732537  0.13533616    -0.78400
C100        C  0.13163877  0.37913084  0.16071524     0.83700
C101        C  0.24702239  0.37472040  0.15798773     0.84100
O102        O  0.21828671  0.36008946  0.16882558    -0.80900
C103        C  0.00071847  0.00814490  0.28844102     0.45600
H104        H  0.00096160  0.00938621  0.30845158    -0.03400
C105        C  0.00162387  0.00643541  0.24145853     0.45600
H106        H  0.00201855  0.00551280  0.22140936    -0.03400
C107        C  0.01888076  0.48957642  0.27829621    -0.17100
C108        C  0.46472992  0.49047482  0.27715402    -0.16900
C109        C  0.01893562  0.04319597  0.27674031    -0.17300
C110        C  0.01922506  0.48857719  0.25349892    -0.17200
C111        C  0.46543255  0.48900014  0.25223615    -0.16800
C112        C  0.01975570  0.04234459  0.25191024    -0.17100
C113        C  0.03848255  0.07269879  0.23645546    -0.01200
C114        C  0.07204229  0.09707338  0.24206099    -0.09200
C115        C  0.08809189  0.12763903  0.22963384    -0.18000
C116        C  0.07121303  0.13444933  0.21069089     0.04400
C117        C  0.03830701  0.10841960  0.20376062     0.18600
C118        C  0.02227762  0.07806211  0.21673931    -0.19400
C119        C  0.02135398  0.11303427  0.18415342    -0.20700
C120        C  0.03636161  0.14304246  0.17124920    -0.19200
C121        C  0.06818804  0.16958090  0.17812934     0.20000
C122        C  0.08579732  0.16597125  0.19827532     0.02100
C123        C  0.11679682  0.19433090  0.20542588    -0.14000
C124        C  0.13004731  0.22467521  0.19273232    -0.11700
C125        C  0.11329325  0.22752745  0.17229135     0.01600
C126        C  0.08237840  0.19988477  0.16508538    -0.23900
H127        H  0.08558590  0.09283104  0.25664175     0.09600
H128        H  0.11372394  0.14534923  0.23517422     0.13200
H129        H  0.99666227  0.05911544  0.21199918     0.11900
H130        H  0.99636241  0.09321920  0.17868220     0.13100
H131        H  0.02270054  0.14572103  0.15602019     0.12100
H132        H  0.13106006  0.19401722  0.22099282     0.09200
H133        H  0.15390703  0.24584048  0.19864808     0.12500
H134        H  0.06901751  0.20219923  0.14950384     0.14300
C135        C  0.43502377  0.46931038  0.23675744    -0.01200
C136        C  0.41118579  0.43601329  0.24260460    -0.09200
C137        C  0.38033914  0.41910680  0.23009120    -0.18000
C138        C  0.37301241  0.43473977  0.21068388     0.04400
C139        C  0.39891347  0.46715018  0.20327671     0.18600
C140        C  0.42933986  0.48418311  0.21649298    -0.19400
C141        C  0.39409556  0.48257784  0.18294118    -0.20700
C142        C  0.36390643  0.46654287  0.16982682    -0.19200
C143        C  0.33730162  0.43538183  0.17735341     0.20000
C144        C  0.34111777  0.41934823  0.19822813     0.02100
C145        C  0.31252574  0.38915789  0.20609579    -0.14000
C146        C  0.28172688  0.37513116  0.19336213    -0.11700
C147        C  0.27878426  0.39029762  0.17220699     0.01600
C148        C  0.30665459  0.42036163  0.16428268    -0.23900
H149        H  0.41589273  0.42351463  0.25758046     0.09600
H150        H  0.36285804  0.39380330  0.23586946     0.13200
H151        H  0.44809811  0.00947651  0.21143882     0.11900
H152        H  0.41389340  0.00712686  0.17705855     0.13100
H153        H  0.36104313  0.47896744  0.15400775     0.12100
H154        H  0.31298483  0.37626164  0.22229958     0.09200
H155        H  0.26032316  0.35196227  0.19980723     0.12500
H156        H  0.30419388  0.43248453  0.14812449     0.14300
C157        C  0.11755518  0.39641485  0.17554117    -0.01200
C158        C  0.12337535  0.42830570  0.16850213    -0.09200
C159        C  0.10828858  0.44434316  0.18082670    -0.18000
C160        C  0.08606414  0.42857720  0.20047671     0.04400
C161        C  0.08035630  0.39619953  0.20770598     0.18600
C162        C  0.09652207  0.38067405  0.19545960    -0.19400
C163        C  0.05804526  0.37928910  0.22678012    -0.20700
C164        C  0.04113156  0.39374327  0.23877138    -0.19200
C165        C  0.04634897  0.42560993  0.23214389     0.20000
C166        C  0.06903878  0.44360963  0.21299066     0.02100
C167        C  0.07362067  0.47586339  0.20717818    -0.14000
C168        C  0.05690644  0.48982360  0.22011744    -0.11700
C169        C  0.03506352  0.47223653  0.23915027     0.01600
C170        C  0.02920581  0.43976206  0.24470273    -0.23900
H171        H  0.13967130  0.44092485  0.15319252     0.09600
H172        H  0.11411475  0.46880622  0.17418402     0.13200
H173        H  0.09166165  0.35578828  0.20079341     0.11900
H174        H  0.05344335  0.35458791  0.23235134     0.13100
H175        H  0.52395111  0.37995400  0.25341588     0.12100
H176        H  0.09030219  0.49123370  0.19296963     0.09200
H177        H  0.06172892  0.01493106  0.21556483     0.12500
H178        H  0.51157614  0.42564869  0.25904868     0.14300
C179        C  0.43295775  0.47572409  0.29228653    -0.01200
C180        C  0.43258276  0.46173634  0.31487989    -0.09200
C181        C  0.40256542  0.44474143  0.32818144    -0.18000
C182        C  0.37134352  0.44076366  0.31923601     0.04400
C183        C  0.37182870  0.45591722  0.29672308     0.18600
C184        C  0.40268646  0.47448792  0.28413891    -0.19400
C185        C  0.34142310  0.95186397  0.28666978    -0.20700
C186        C  0.31047691  0.43313853  0.29859739    -0.19200
C187        C  0.30927552  0.41871466  0.32116101     0.20000
C188        C  0.33976391  0.42245419  0.33185026     0.02100
C189        C  0.33739344  0.40812532  0.35488417    -0.14000
C190        C  0.30637582  0.39177090  0.36706553    -0.11700
C191        C  0.27645833  0.38851312  0.35668898     0.01600
C192        C  0.27791229  0.40134436  0.33343585    -0.23900
H193        H  0.45538122  0.46320938  0.32240161     0.09600
H194        H  0.40463860  0.43433497  0.34515019     0.13200
H195        H  0.40276377  0.98704624  0.26751836     0.11900
H196        H  0.34152422  0.96295320  0.26932756     0.13100
H197        H  0.28739114  0.43038542  0.29029077     0.12100
H198        H  0.35912691  0.40975366  0.36430775     0.09200
H199        H  0.30591310  0.38185688  0.38493377     0.12500
H200        H  0.25491115  0.39910376  0.32532306     0.14300
C201        C  0.11368130  0.22812825  0.35762837    -0.01200
C202        C  0.11638402  0.20057740  0.36618685    -0.09200
C203        C  0.10179680  0.17017952  0.35353784    -0.18000
C204        C  0.08324702  0.16606278  0.33198945     0.04400
C205        C  0.08006254  0.19395756  0.32357697     0.18600
C206        C  0.09582337  0.22480319  0.33613238    -0.19400
C207        C  0.06063974  0.19069449  0.30294878    -0.20700
C208        C  0.04390761  0.16017978  0.29064494    -0.19200
C209        C  0.04693920  0.13243299  0.29827372     0.20000
C210        C  0.06722969  0.13513245  0.31875606     0.02100
C211        C  0.07072448  0.10679458  0.32498612    -0.14000
C212        C  0.05468371  0.07711516  0.31147900    -0.11700
C213        C  0.03448327  0.07452111  0.29150846     0.01600
C214        C  0.03009157  0.10205314  0.28533595    -0.23900
H215        H  0.13005082  0.20258952  0.38278756     0.09600
H216        H  0.10487248  0.15018524  0.36141407     0.13200
H217        H  0.09323246  0.24591305  0.32961005     0.11900
H218        H  0.05796028  0.21176237  0.29648136     0.13100
H219        H  0.02874892  0.15836478  0.27489414     0.12100
H220        H  0.08629776  0.10697688  0.33984934     0.09200
H221        H  0.05872468  0.05627742  0.31638229     0.12500
H222        H  0.01402847  0.10002293  0.27009158     0.14300
C223        C  0.03481778  0.47479783  0.29406186    -0.01200
C224        C  0.01478516  0.44975395  0.31059664    -0.09200
C225        C  0.02852639  0.43345809  0.32417274    -0.18000
C226        C  0.06289881  0.44130021  0.32117458     0.04400
C227        C  0.08302361  0.46642404  0.30399039     0.18600
C228        C  0.06911818  0.48346006  0.29109454    -0.19400
C229        C  0.11656280  0.47370453  0.29930435    -0.20700
C230        C  0.13043436  0.45615380  0.31105915    -0.19200
C231        C  0.11148796  0.43166644  0.32836426     0.20000
C232        C  0.07771647  0.42449163  0.33411523     0.02100
C233        C  0.06041452  0.40111218  0.35279241    -0.14000
C234        C  0.07590158  0.38537739  0.36504563    -0.11700
C235        C  0.10867702  0.39173467  0.35878300     0.01600
C236        C  0.12629812  0.41467020  0.34028899    -0.23900
H237        H  0.98791388  0.44149263  0.31221018     0.09600
H238        H  0.01118286  0.41387531  0.33610361     0.13200
H239        H  0.08458083  0.50262234  0.27802222     0.11900
H240        H  0.13196013  0.49265996  0.28610851     0.12900
H241        H  0.15629867  0.46201627  0.30675672     0.12100
H242        H  0.03525037  0.39508313  0.35880133     0.09200
H243        H  0.06210782  0.36799524  0.37952078     0.12500
H244        H  0.15203087  0.42019298  0.33582062     0.14300
C245        C  0.28239846  0.06292017  0.56226224    -0.01200
C246        C  0.24869371  0.05046611  0.55435584    -0.09200
C247        C  0.23499096  0.02612077  0.53633986    -0.18000
C248        C  0.25466668  0.01330123  0.52538010     0.04400
C249        C  0.28838317  0.02483999  0.53412366     0.18600
C250        C  0.30192254  0.04944820  0.55240642    -0.19400
C251        C  0.30851360  0.51212107  0.52429385    -0.20700
C252        C  0.29596625  0.48836515  0.50581192    -0.19200
C253        C  0.26314062  0.47706497  0.49651197     0.20000
C254        C  0.24206991  0.48951105  0.50605987     0.02100
C255        C  0.20938749  0.47779778  0.49570919    -0.14000
C256        C  0.19775079  0.45397722  0.47722001    -0.11700
C257        C  0.21820117  0.44107640  0.46828610     0.01600
C258        C  0.25111602  0.45312530  0.47782043    -0.23900
H259        H  0.23277432  0.06000163  0.56183956     0.09600
H260        H  0.20894951  0.01807615  0.53136051     0.13200
H261        H  0.32795598  0.05872022  0.55848249     0.11900
H262        H  0.33416176  0.52063845  0.53091858     0.13100
H263        H  0.31214423  0.47892334  0.49863198     0.12100
H264        H  0.19206001  0.98641331  0.50147472     0.09200
H265        H  0.17228409  0.44523092  0.47016886     0.12500
H266        H  0.26721827  0.44332095  0.47108295     0.14300
C267        C  0.43786049  0.21856477  0.56285391    -0.01200
C268        C  0.45365103  0.19988000  0.55588888    -0.09200
C269        C  0.47847947  0.21156507  0.53788086    -0.18000
C270        C  0.48832217  0.24249221  0.52605094     0.04400
C271        C  0.47284782  0.26178306  0.53359754     0.18600
C272        C  0.44794335  0.24974691  0.55180577    -0.19400
C273        C  0.48206291  0.29283957  0.52277282    -0.20700
C274        C  0.50640248  0.30523752  0.50455252    -0.19200
C275        C  0.02185985  0.28672151  0.49654203     0.20000
C276        C  0.01291105  0.25496912  0.50703887     0.02100
C277        C  0.02885814  0.23705057  0.49793481    -0.14000
C278        C  0.05313924  0.25043133  0.47958379    -0.11700
C279        C  0.06244319  0.28206217  0.46966504     0.01600
C280        C  0.04642548  0.29992858  0.47814161    -0.23900
H281        H  0.44650596  0.17578333  0.56418461     0.09600
H282        H  0.98933646  0.19568311  0.53361380     0.13200
H283        H  0.43592770  0.26446811  0.55702966     0.11900
H284        H  0.47038801  0.30767916  0.52845773     0.13100
H285        H  0.51309529  0.32944686  0.49660421     0.12100
H286        H  0.02324598  0.21265626  0.50460890     0.09200
H287        H  0.06513037  0.23609402  0.47345192     0.12500
H288        H  0.05333936  0.32442344  0.47059960     0.14300
C289        C  0.28219247  0.22249885  0.56222287    -0.01200
C290        C  0.29969505  0.25717334  0.55772181    -0.09200
C291        C  0.28792803  0.27122226  0.54031717    -0.18000
C292        C  0.25823981  0.25082996  0.52660447     0.04400
C293        C  0.24033432  0.21571213  0.53150122     0.18600
C294        C  0.25226125  0.20201198  0.54921669    -0.19400
C295        C  0.21087338  0.19432214  0.51846394    -0.20700
C296        C  0.19879615  0.20703802  0.50047645    -0.19200
C297        C  0.21591145  0.24143979  0.49508050     0.20000
C298        C  0.24585576  0.26388455  0.50807690     0.02100
C299        C  0.26219288  0.29836755  0.50182687    -0.14000
C300        C  0.24940340  0.30998044  0.48345998    -0.11700
C301        C  0.21985255  0.28780496  0.47075985     0.01600
C302        C  0.20319490  0.25353178  0.47671702    -0.23900
H303        H  0.32282780  0.27356963  0.56754803     0.09600
H304        H  0.30289454  0.29805897  0.53789415     0.13200
H305        H  0.23853340  0.17508251  0.55244820     0.11900
H306        H  0.19715120  0.16751342  0.52212475     0.13100
H307        H  0.17596599  0.18981080  0.49065269     0.12100
H308        H  0.28487413  0.31708937  0.51077017     0.09200
H309        H  0.26256678  0.33667835  0.47944697     0.12500
H310        H  0.18023122  0.23617222  0.46706297     0.14300
C311        C  0.46182232  0.03014780  0.73993681    -0.01200
C312        C  0.42942510  0.02430041  0.74704672    -0.09200
C313        C  0.41378036  0.04050602  0.73546797    -0.18000
C314        C  0.42999938  0.06290127  0.71606187     0.04400
C315        C  0.46221358  0.06747635  0.70826103     0.18600
C316        C  0.47773327  0.05119624  0.72021129    -0.19400
C317        C  0.47890307  0.08844744  0.68864611    -0.20700
C318        C  0.46409273  0.10459855  0.67628129    -0.19200
C319        C  0.43254682  0.10077131  0.68352884     0.20000
C320        C  0.41532379  0.08054652  0.70387046     0.02100
C321        C  0.38431090  0.07905939  0.71105567    -0.14000
C322        C  0.37044920  0.09587699  0.69795631    -0.11700
C323        C  0.38674170  0.11419252  0.67718000     0.01600
C324        C  0.41799284  0.11687934  0.67031451    -0.23900
H325        H  0.41641189  0.00752993  0.76198377     0.09600
H326        H  0.38896416  0.03489046  0.74202685     0.13200
H327        H  0.50273761  0.05565895  0.71458818     0.11900
H328        H  0.50344922  0.09209385  0.68263886     0.13100
H329        H  0.47746169  0.12026164  0.66092266     0.12100
H330        H  0.37021705  0.06513334  0.72669669     0.09200
H331        H  0.34635273  0.09365133  0.70364667     0.12500
H332        H  0.43104091  0.13156695  0.65448509     0.14300
C333        C  0.06338577  0.03399744  0.73429206    -0.01200
C334        C  0.06529943  0.01917045  0.71265592    -0.09200
C335        C  0.09442467  0.03454587  0.69826115    -0.18000
C336        C  0.12290538  0.06534772  0.70530831     0.04400
C337        C  0.12007989  0.08112818  0.72668492     0.18600
C338        C  0.09000616  0.06605566  0.74032338    -0.19400
C339        C  0.14767926  0.11123634  0.73483479    -0.20700
C340        C  0.17855606  0.12560525  0.72256355    -0.19200
C341        C  0.18228781  0.11060635  0.70155687     0.20000
C342        C  0.15427775  0.08067691  0.69227372     0.02100
C343        C  0.15904202  0.06729525  0.67047336    -0.14000
C344        C  0.19037619  0.08278826  0.65861988    -0.11700
C345        C  0.21807106  0.11166931  0.66824451     0.01600
C346        C  0.21392901  0.12544612  0.68972699    -0.23900
H347        H  0.04470491  0.99512817  0.70706823     0.09600
H348        H  0.09420311  0.02107995  0.68218772     0.13200
H349        H  0.08796682  0.07865063  0.75635864     0.11900
H350        H  0.14565010  0.12329359  0.75117414     0.13100
H351        H  0.19970256  0.14857331  0.72959170     0.12100
H352        H  0.13905944  0.04509278  0.66198155     0.09200
H353        H  0.19307040  0.07186733  0.64191450     0.12500
H354        H  0.23519234  0.14818030  0.69696720     0.14300
C355        C  0.46172987  0.43080545  0.73871052    -0.01200
C356        C  0.42854572  0.40611011  0.74478993    -0.09200
C357        C  0.41267453  0.37521562  0.73264730    -0.18000
C358        C  0.42933603  0.36841862  0.71351753     0.04400
C359        C  0.46206312  0.39449881  0.70641953     0.18600
C360        C  0.47803250  0.42499599  0.71925899    -0.19400
C361        C  0.47874987  0.38997212  0.68659758    -0.20700
C362        C  0.46339745  0.36016024  0.67341172    -0.19200
C363        C  0.43163631  0.33362300  0.68034362     0.20000
C364        C  0.41458363  0.33695765  0.70093725     0.02100
C365        C  0.38385950  0.30846120  0.70824567    -0.14000
C366        C  0.37011261  0.27835811  0.69512539    -0.11700
C367        C  0.38608591  0.27590435  0.67410072     0.01600
C368        C  0.41691917  0.30361691  0.66687110    -0.23900
H369        H  0.41514760  0.41046557  0.75941904     0.09600
H370        H  0.38722953  0.35733670  0.73839903     0.13200
H371        H  0.00363731  0.44379815  0.71454009     0.11900
H372        H  0.00367911  0.40980073  0.68106568     0.13100
H373        H  0.47669934  0.35765852  0.65788592     0.12100
H374        H  0.37019264  0.30852635  0.72423371     0.09200
H375        H  0.34643141  0.25711290  0.70115491     0.12500
H376        H  0.42978875  0.30161319  0.65088870     0.14300
C377        C  0.43700390  0.22337457  0.97086290    -0.01200
C378        C  0.44972390  0.25701993  0.97783522    -0.09200
C379        C  0.47369048  0.27101271  0.99637783    -0.18000
C380        C  0.48566040  0.25161083  0.00872472     0.04400
C381        C  0.47310090  0.21765067  0.00127014     0.18600
C382        C  0.44916766  0.20398640  0.98251171    -0.19400
C383        C  0.48426647  0.19736118  0.01268731    -0.20700
C384        C  0.50799115  0.21015889  0.03127377    -0.19200
C385        C  0.02098982  0.24349623  0.03895532     0.20000
C386        C  0.00978164  0.26466243  0.02803346     0.02100
C387        C  0.02342194  0.29798371  0.03684264    -0.14000
C388        C  0.04822491  0.31012111  0.05495291    -0.11700
C389        C  0.06010793  0.28949309  0.06495634     0.01600
C390        C  0.04573923  0.25596157  0.05722015    -0.23900
H391        H  0.44081801  0.27260545  0.96911587     0.09600
H392        H  0.98219340  0.29701830  0.00064966     0.13200
H393        H  0.43946722  0.17788429  0.97733553     0.11900
H394        H  0.47470823  0.17143665  0.00711895     0.13100
H395        H  0.51639273  0.19390395  0.03960527     0.12100
H396        H  0.01584305  0.31546340  0.02992086     0.09200
H397        H  0.05875650  0.33609032  0.06067882     0.12500
H398        H  0.05451871  0.23964198  0.06494446     0.14300
C399        C  0.28402203  0.06329258  0.96755206    -0.01200
C400        C  0.30434767  0.04956007  0.97527289    -0.09200
C401        C  0.29309027  0.02516535  0.99335353    -0.18000
C402        C  0.26098921  0.01377610  0.00451958     0.04400
C403        C  0.24025025  0.02741833  0.99635119     0.18600
C404        C  0.25175749  0.05168484  0.97796043    -0.19400
C405        C  0.20833379  0.01718105  0.00683357    -0.20700
C406        C  0.19645064  0.49358090  0.02532329    -0.19200
C407        C  0.21615406  0.47956935  0.03373629     0.20000
C408        C  0.24874925  0.48947755  0.02351131     0.02100
C409        C  0.26758450  0.47454760  0.03272797    -0.14000
C410        C  0.25431433  0.45037282  0.05093255    -0.11700
C411        C  0.22193381  0.44024519  0.06066782     0.01600
C412        C  0.20318723  0.45532227  0.05215012    -0.23900
H413        H  0.32940621  0.05806060  0.96756442     0.09600
H414        H  0.31033817  0.01608192  0.99833804     0.13200
H415        H  0.23586201  0.06224858  0.97224508     0.11900
H416        H  0.19246043  0.02756785  0.00072459     0.13100
H417        H  0.17159693  0.48614808  0.03304771     0.12100
H418        H  0.29251310  0.48069460  0.02612975     0.09200
H419        H  0.26940329  0.43918346  0.05713548     0.12500
H420        H  0.17809694  0.44772798  0.05952179     0.14300
C421        C  0.27742662  0.21589391  0.96912792    -0.01200
C422        C  0.24268551  0.19793075  0.97500411    -0.09200
C423        C  0.22914540  0.20948212  0.99301309    -0.18000
C424        C  0.25012116  0.23946084  0.00594389     0.04400
C425        C  0.28532687  0.25762174  0.99981141     0.18600
C426        C  0.29851040  0.24584495  0.98156369    -0.19400
C427        C  0.30731822  0.28739148  0.01200394    -0.20700
C428        C  0.29507217  0.29981095  0.03008609    -0.19200
C429        C  0.26055237  0.28270992  0.03647966     0.20000
C430        C  0.23754493  0.25215842  0.02466240     0.02100
C431        C  0.20300108  0.23582422  0.03207503    -0.14000
C432        C  0.19175413  0.24964431  0.05006730    -0.11700
C433        C  0.21443073  0.28012200  0.06129030     0.01600
C434        C  0.24889139  0.29628855  0.05451579    -0.23900
H435        H  0.22582565  0.17465978  0.96572938     0.09600
H436        H  0.20221790  0.19427695  0.99643673     0.13200
H437        H  0.32550959  0.25982795  0.97735972     0.11900
H438        H  0.33419818  0.30125840  0.00746267     0.13100
H439        H  0.31273573  0.32305571  0.03908502     0.12100
H440        H  0.18395704  0.21248244  0.02421465     0.09200
H441        H  0.16497330  0.23662343  0.05488924     0.12500
H442        H  0.26675156  0.31984650  0.06308211     0.14300
C443        C  0.47378267  0.03809183  0.79421419    -0.01200
C444        C  0.48135190  0.07061938  0.78717619    -0.09200
C445        C  0.46845046  0.08832993  0.80004589    -0.18000
C446        C  0.44828142  0.07428290  0.82088082     0.04400
C447        C  0.44390156  0.04291283  0.82932137     0.18600
C448        C  0.45640770  0.02513572  0.81588761    -0.19400
C449        C  0.42634903  0.02901884  0.85083437    -0.20700
C450        C  0.41226677  0.04526149  0.86391539    -0.19200
C451        C  0.41440184  0.07514658  0.85534407     0.20000
C452        C  0.43214362  0.09001247  0.83357849     0.02100
C453        C  0.43175904  0.11916128  0.82504113    -0.14000
C454        C  0.41442157  0.13285753  0.83766558    -0.11700
C455        C  0.39772967  0.11843501  0.85936534     0.01600
C456        C  0.39813914  0.08981547  0.86819471    -0.23900
H457        H  0.49660484  0.08209377  0.77123555     0.09600
H458        H  0.47472933  0.11291236  0.79332230     0.13200
H459        H  0.45143033  0.50068150  0.82192205     0.11900
H460        H  0.42332482  0.50533243  0.85752218     0.13100
H461        H  0.39874540  0.03384307  0.88050221     0.12100
H462        H  0.44382701  0.13136998  0.80836410     0.09200
H463        H  0.41441135  0.15504487  0.83059075     0.12500
H464        H  0.38484912  0.07830810  0.88485411     0.14300
C465        C  0.06928806  0.03019753  0.78966828    -0.01200
C466        C  0.09642426  0.02534685  0.78215932    -0.09200
C467        C  0.12787399  0.04120331  0.79414737    -0.18000
C468        C  0.13282470  0.06154983  0.81472480     0.04400
C469        C  0.10437465  0.06421194  0.82332766     0.18600
C470        C  0.07332508  0.04914199  0.81058668    -0.19400
C471        C  0.10705560  0.08194896  0.84461169    -0.20700
C472        C  0.13737902  0.09705764  0.85763761    -0.19200
C473        C  0.16620470  0.09595177  0.84921870     0.20000
C474        C  0.16468731  0.07889262  0.82734028     0.02100
C475        C  0.19526548  0.08051557  0.81892694    -0.14000
C476        C  0.22574391  0.09756504  0.83210436    -0.11700
C477        C  0.22654502  0.11288576  0.85423935     0.01600
C478        C  0.19664085  0.11203417  0.86257320    -0.23900
H479        H  0.09349411  0.50966266  0.76662634     0.09600
H480        H  0.14766451  0.03663447  0.78717534     0.13200
H481        H  0.05239835  0.05270315  0.81678074     0.11900
H482        H  0.08540170  0.08382233  0.85139708     0.13100
H483        H  0.13844743  0.11018857  0.87424326     0.12100
H484        H  0.19647048  0.06924905  0.80206890     0.09200
H485        H  0.24856479  0.09804102  0.82524854     0.12500
H486        H  0.19716093  0.12433586  0.87948977     0.14300
C487        C  0.46993526  0.43246643  0.79377869    -0.01200
C488        C  0.45296688  0.43098695  0.81528274    -0.09200
C489        C  0.43847440  0.40196556  0.82943038    -0.18000
C490        C  0.43999022  0.37290469  0.82226793     0.04400
C491        C  0.45764897  0.37455900  0.80056975     0.18600
C492        C  0.47346649  0.40453461  0.78711105    -0.19400
C493        C  0.45856587  0.34601839  0.79207432    -0.20700
C494        C  0.44157362  0.31556299  0.80439023    -0.19200
C495        C  0.42413153  0.31316031  0.82590309     0.20000
C496        C  0.42390512  0.34206295  0.83550777     0.02100
C497        C  0.40758972  0.33881944  0.85796005    -0.14000
C498        C  0.39149744  0.30803514  0.87002176    -0.11700
C499        C  0.39061430  0.27931108  0.86006630     0.01600
C500        C  0.40704264  0.28204794  0.83797764    -0.23900
H501        H  0.44990178  0.45194808  0.82094450     0.09600
H502        H  0.42519483  0.40275771  0.84540634     0.13200
H503        H  0.98762488  0.40570704  0.77095979     0.11900
H504        H  0.97179727  0.34703517  0.77545798     0.13100
H505        H  0.44217050  0.29375125  0.79707228     0.12100
H506        H  0.40720561  0.35968205  0.86688402     0.09200
H507        H  0.37937672  0.30665882  0.88722247     0.12500
H508        H  0.40718266  0.26010191  0.83044495     0.14300
O509        O  0.32292238  0.72098391  0.94433745    -0.78400
C510        C  0.40945697  0.70785639  0.95267730     0.82700
O511        O  0.36188938  0.71920575  0.86199997    -0.79500
O512        O  0.37945834  0.63044019  0.89610503    -0.81000
O513        O  0.27808942  0.60243308  0.94231702    -0.80800
O514        O  0.27430936  0.67248836  0.94348279    -0.79400
Zn515      Zn  0.35565843  0.71439806  0.92325477     1.55700
O516        O  0.32889009  0.60521187  0.94423891    -0.80800
Cd517      Cd  0.28662395  0.64345190  0.92140360     1.59700
Cd518      Cd  0.33702860  0.66939058  0.87411854     1.59600
O519        O  0.25396387  0.62760985  0.89224122    -0.80800
O520        O  0.33504666  0.66896773  0.91042438    -1.91300
Cd521      Cd  0.35996722  0.64626510  0.92348156     1.59900
O522        O  0.28736531  0.64292054  0.85954529    -0.80700
O523        O  0.39932048  0.67769930  0.94590117    -0.79400
C524        C  0.37388005  0.74710541  0.87344745     0.83100
C525        C  0.29218461  0.70253865  0.95114858     0.82800
O526        O  0.39550504  0.72451906  0.94485390    -0.78300
C527        C  0.29757034  0.59153009  0.95016405     0.83600
O528        O  0.37217274  0.74819501  0.89638293    -0.78400
C529        C  0.25779207  0.62871789  0.86937907     0.83700
C530        C  0.38003222  0.63301348  0.87319563     0.84100
O531        O  0.36564910  0.64735546  0.86212041    -0.80900
O532        O  0.39620521  0.72230714  0.58724242    -0.78400
C533        C  0.29589973  0.70725295  0.57943824     0.82700
O534        O  0.35330091  0.71628667  0.66987989    -0.79500
O535        O  0.25007099  0.62588178  0.63234763    -0.81000
O536        O  0.32709182  0.60194238  0.58808506    -0.80800
O537        O  0.39841892  0.67454514  0.58801834    -0.79400
Zn538      Zn  0.35680458  0.71454073  0.60866792     1.55700
O539        O  0.27963040  0.60549024  0.58483866    -0.80800
Cd540      Cd  0.35754940  0.64379011  0.60944674     1.59700
Cd541      Cd  0.32962364  0.66723376  0.65642998     1.59600
O542        O  0.37511230  0.62917656  0.63894367    -0.80800
O543        O  0.33324083  0.66835301  0.62029129    -1.91300
Cd544      Cd  0.28672970  0.64488904  0.60621091     1.59900
O545        O  0.35331833  0.64147120  0.67122340    -0.80700
O546        O  0.27769130  0.67627720  0.58472854    -0.79400
C547        C  0.37046796  0.74474721  0.65945118     0.83100
C548        C  0.40957176  0.70456334  0.58052096     0.82800
O549        O  0.32587734  0.72491904  0.58800659    -0.78300
C550        C  0.29721075  0.59140820  0.57952007     0.83600
O551        O  0.37439878  0.74720474  0.63659036    -0.78400
C552        C  0.37078720  0.62915421  0.66171216     0.83700
C553        C  0.25079397  0.62789422  0.65526407     0.84100
O554        O  0.27869133  0.64335976  0.66707610    -0.80900
C555        C  0.00182529  0.99890544  0.78853699     0.45600
H556        H  0.50400272  0.99955529  0.80852275    -0.03400
C557        C  0.99688087  0.99731580  0.74162712     0.45600
H558        H  0.99445905  0.99662967  0.72163841    -0.03400
C559        C  0.03660246  0.51565862  0.77575584    -0.17100
C560        C  0.48287689  0.96293805  0.77808605    -0.16900
C561        C  0.48336321  0.51736808  0.77862464    -0.17300
C562        C  0.03399362  0.51564085  0.75089285    -0.17200
C563        C  0.48009771  0.96216896  0.75328570    -0.16800
C564        C  0.47989901  0.51561693  0.75389071    -0.17100
O565        O  0.17563896  0.78225472  0.44425042    -0.78400
C566        C  0.09033982  0.79730781  0.45170324     0.82700
O567        O  0.13996387  0.78797304  0.36099350    -0.79500
O568        O  0.12189264  0.87508170  0.39569077    -0.81000
O569        O  0.22332327  0.90203851  0.44254755    -0.80800
O570        O  0.22365197  0.83125501  0.44528058    -0.79400
Zn571      Zn  0.14421431  0.79018899  0.42251244     1.55700
O572        O  0.17282023  0.89988864  0.44460552    -0.80800
Cd573      Cd  0.21366705  0.86049834  0.42220366     1.59700
Cd574      Cd  0.16574401  0.83734478  0.37413799     1.59600
O575        O  0.24746931  0.87469483  0.39401636    -0.80800
O576        O  0.16575290  0.83608691  0.41043395    -1.91300
Cd577      Cd  0.14113683  0.85914831  0.42335415     1.59900
O578        O  0.21564097  0.86103681  0.36061649    -0.80700
O579        O  0.10141856  0.82779653  0.44544050    -0.79400
C580        C  0.12851442  0.75968429  0.37180512     0.83100
C581        C  0.20572238  0.80095170  0.45224942     0.82800
O582        O  0.10361502  0.78011980  0.44357170    -0.78300
C583        C  0.20416922  0.91317405  0.45056293     0.83600
O584        O  0.12953355  0.75763458  0.39473411    -0.78400
C585        C  0.24467429  0.87377941  0.37109468     0.83700
C586        C  0.12501830  0.87599064  0.37279204     0.84100
O587        O  0.14161968  0.86381336  0.36186520    -0.80900
O588        O  0.10182547  0.78494200  0.08842028    -0.78400
C589        C  0.20195992  0.79605833  0.07899977     0.82700
O590        O  0.14459966  0.78722576  0.16920085    -0.79500
O591        O  0.24942004  0.87650499  0.13505567    -0.81000
O592        O  0.17705140  0.90277716  0.08652972    -0.80800
O593        O  0.10231105  0.83402830  0.08869162    -0.79400
Zn594      Zn  0.14183247  0.79104773  0.10811962     1.55700
O595        O  0.22431999  0.89862967  0.08512254    -0.80800
Cd596      Cd  0.14536548  0.86356133  0.10893506     1.59700
Cd597      Cd  0.16801616  0.83643576  0.15655098     1.59600
O598        O  0.13207904  0.88294534  0.13789711    -0.80800
O599        O  0.16702669  0.83679559  0.12030854    -1.91300
Cd600      Cd  0.21445171  0.85872353  0.10743128     1.59900
O601        O  0.14294399  0.86122502  0.17075071    -0.80700
O602        O  0.22232580  0.82572554  0.08646210    -0.79400
C603        C  0.12827513  0.75907923  0.15822692     0.83100
C604        C  0.08931676  0.80347131  0.08187358     0.82800
O605        O  0.17094336  0.78030398  0.08587357    -0.78300
C606        C  0.20707360  0.91264421  0.07859397     0.83600
O607        O  0.12475964  0.75732475  0.13533524    -0.78400
C608        C  0.13164238  0.87913149  0.16071679     0.83700
C609        C  0.24702423  0.87471965  0.15798860     0.84100
O610        O  0.21828848  0.86008818  0.16882636    -0.80900
C611        C  0.00071702  0.50814381  0.28844321     0.45600
H612        H  0.00095926  0.50938428  0.30845376    -0.03400
C613        C  0.00162364  0.50643546  0.24146070     0.45600
H614        H  0.00201872  0.50551335  0.22141153    -0.03400
C615        C  0.01888131  0.98957645  0.27829404    -0.17100
C616        C  0.46473095  0.99047540  0.27715472    -0.16900
C617        C  0.01893386  0.54319513  0.27674293    -0.17300
C618        C  0.01922498  0.98857689  0.25349671    -0.17200
C619        C  0.46543379  0.98900113  0.25223688    -0.16800
C620        C  0.01975446  0.54234446  0.25191283    -0.17100
C621        C  0.03848117  0.57269904  0.23645830    -0.01200
C622        C  0.07204168  0.59707255  0.24206299    -0.09200
C623        C  0.08809248  0.62763754  0.22963490    -0.18000
C624        C  0.07121376  0.63444857  0.21069217     0.04400
C625        C  0.03830588  0.60842046  0.20376371     0.18600
C626        C  0.02227575  0.57806351  0.21674303    -0.19400
C627        C  0.02135184  0.61303614  0.18415766    -0.20700
C628        C  0.03636001  0.64304377  0.17125277    -0.19200
C629        C  0.06818865  0.66958058  0.17813077     0.20000
C630        C  0.08579959  0.66596977  0.19827527     0.02100
C631        C  0.11680242  0.69432759  0.20542299    -0.14000
C632        C  0.13005342  0.72467166  0.19272893    -0.11700
C633        C  0.11329668  0.72752543  0.17229005     0.01600
C634        C  0.08237948  0.69988410  0.16508620    -0.23900
H635        H  0.08558520  0.59282963  0.25664346     0.09600
H636        H  0.11372517  0.64534662  0.23517457     0.13200
H637        H  0.99665926  0.55911788  0.21200392     0.11900
H638        H  0.99635875  0.59322231  0.17868794     0.13100
H639        H  0.02269779  0.64572313  0.15602489     0.12100
H640        H  0.13106807  0.69401287  0.22098811     0.09200
H641        H  0.15391529  0.74583559  0.19864278     0.12500
H642        H  0.06901690  0.70219955  0.14950601     0.14300
C643        C  0.43502523  0.96931090  0.23675823    -0.01200
C644        C  0.41118713  0.93601410  0.24260602    -0.09200
C645        C  0.38034059  0.91910721  0.23009260    -0.18000
C646        C  0.37301414  0.93473947  0.21068470     0.04400
C647        C  0.39891540  0.96714946  0.20327695     0.18600
C648        C  0.42934180  0.98418279  0.21649312    -0.19400
C649        C  0.39409780  0.98257641  0.18294091    -0.20700
C650        C  0.36390859  0.96654118  0.16982666    -0.19200
C651        C  0.33730359  0.93538056  0.17735381     0.20000
C652        C  0.34111955  0.91934758  0.19822891     0.02100
C653        C  0.31252738  0.88915753  0.20609693    -0.14000
C654        C  0.28172852  0.87513067  0.19336329    -0.11700
C655        C  0.27878604  0.89029657  0.17220787     0.01600
C656        C  0.30665653  0.92036025  0.16428316    -0.23900
H657        H  0.41589393  0.92351601  0.25758227     0.09600
H658        H  0.36285942  0.89380397  0.23587130     0.13200
H659        H  0.44809583  0.50947729  0.21143932     0.11900
H660        H  0.41389104  0.50712872  0.17705926     0.13100
H661        H  0.36104546  0.97896523  0.15400729     0.12100
H662        H  0.31298641  0.87626170  0.22230099     0.09200
H663        H  0.26032451  0.85196195  0.19980873     0.12500
H664        H  0.30419591  0.93248272  0.14812485     0.14300
C665        C  0.11755939  0.89641590  0.17554287    -0.01200
C666        C  0.12338144  0.92830766  0.16850443    -0.09200
C667        C  0.10829393  0.94434496  0.18082833    -0.18000
C668        C  0.08606687  0.92857801  0.20047688     0.04400
C669        C  0.08035746  0.89619959  0.20770565     0.18600
C670        C  0.09652399  0.88067429  0.19546007    -0.19400
C671        C  0.05804391  0.87928818  0.22677837    -0.20700
C672        C  0.04112929  0.89374206  0.23876868    -0.19200
C673        C  0.04634809  0.92560934  0.23214170     0.20000
C674        C  0.06904033  0.94361002  0.21298982     0.02100
C675        C  0.07362328  0.97586429  0.20717766    -0.14000
C676        C  0.05690812  0.98982416  0.22011620    -0.11700
C677        C  0.03506325  0.97223623  0.23914796     0.01600
C678        C  0.02920418  0.93976122  0.24469976    -0.23900
H679        H  0.13967902  0.94092735  0.15319575     0.09600
H680        H  0.11412152  0.96880873  0.17418615     0.13200
H681        H  0.09166208  0.85578776  0.20079333     0.11900
H682        H  0.05344082  0.85458646  0.23234918     0.13100
H683        H  0.52394770  0.87995209  0.25341617     0.12100
H684        H  0.09030643  0.99123523  0.19297002     0.09200
H685        H  0.06172629  0.51493001  0.21556560     0.12500
H686        H  0.51157568  0.92564867  0.25904980     0.14300
C687        C  0.43295869  0.97572463  0.29228689    -0.01200
C688        C  0.43258276  0.96173474  0.31487946    -0.09200
C689        C  0.40256499  0.94473880  0.32818029    -0.18000
C690        C  0.37134369  0.94076285  0.31923504     0.04400
C691        C  0.37183006  0.95591956  0.29672329     0.18600
C692        C  0.40268817  0.97449029  0.28413957    -0.19400
C693        C  0.34142094  0.45185836  0.28666877    -0.20700
C694        C  0.31047883  0.93314449  0.29859814    -0.19200
C695        C  0.30927619  0.91871696  0.32116041     0.20000
C696        C  0.33976373  0.92245263  0.33184865     0.02100
C697        C  0.33739197  0.90811909  0.35488086    -0.14000
C698        C  0.30637436  0.89176464  0.36706209    -0.11700
C699        C  0.27645796  0.88851139  0.35668683     0.01600
C700        C  0.27791286  0.90134667  0.33343508    -0.23900
H701        H  0.45538090  0.96320694  0.32240111     0.09600
H702        H  0.40463756  0.93433085  0.34514842     0.13200
H703        H  0.40276110  0.48704234  0.26751731     0.11900
H704        H  0.34152112  0.46294496  0.26932558     0.13100
H705        H  0.28739363  0.93039425  0.29029223     0.12100
H706        H  0.35912457  0.90974338  0.36430336     0.09200
H707        H  0.30591066  0.88184714  0.38492905     0.12500
H708        H  0.25491227  0.89910927  0.32532329     0.14300
C709        C  0.11368306  0.72812681  0.35763100    -0.01200
C710        C  0.11638314  0.70057493  0.36619044    -0.09200
C711        C  0.10179409  0.67017650  0.35354207    -0.18000
C712        C  0.08324538  0.66606050  0.33199322     0.04400
C713        C  0.08006353  0.69395634  0.32357985     0.18600
C714        C  0.09582597  0.72480226  0.33613471    -0.19400
C715        C  0.06064177  0.69069412  0.30295127    -0.20700
C716        C  0.04390851  0.66017938  0.29064763    -0.19200
C717        C  0.04693812  0.63243172  0.29827699     0.20000
C718        C  0.06722709  0.63513009  0.31876006     0.02100
C719        C  0.07071985  0.60679134  0.32499066    -0.14000
C720        C  0.05467947  0.57711238  0.31148312    -0.11700
C721        C  0.03448099  0.57451967  0.29151159     0.01600
C722        C  0.03009048  0.60205226  0.28533891    -0.23900
H723        H  0.13004915  0.70258654  0.38279148     0.09600
H724        H  0.10486759  0.65018143  0.36141906     0.13200
H725        H  0.09323696  0.74591292  0.32961164     0.11900
H726        H  0.05796418  0.71176284  0.29648326     0.13100
H727        H  0.02875092  0.65836516  0.27489640     0.12100
H728        H  0.08629180  0.60697269  0.33985473     0.09200
H729        H  0.05871929  0.55627415  0.31638671     0.12500
H730        H  0.01402844  0.60002289  0.27009397     0.14300
C731        C  0.03481820  0.97479717  0.29405957    -0.01200
C732        C  0.01478610  0.94975547  0.31059598    -0.09200
C733        C  0.02852697  0.93345886  0.32417187    -0.18000
C734        C  0.06289834  0.94129812  0.32117212     0.04400
C735        C  0.08302252  0.96641983  0.30398648     0.18600
C736        C  0.06911764  0.98345654  0.29109069    -0.19400
C737        C  0.11656065  0.97369788  0.29929909    -0.20700
C738        C  0.13043205  0.95614730  0.31105437    -0.19200
C739        C  0.11148650  0.93166229  0.32836113     0.20000
C740        C  0.07771583  0.92448928  0.33411295     0.02100
C741        C  0.06041455  0.90111149  0.35279122    -0.14000
C742        C  0.07590191  0.88537731  0.36504512    -0.11700
C743        C  0.10867684  0.89173330  0.35878210     0.01600
C744        C  0.12629693  0.91466670  0.34028664    -0.23900
H745        H  0.98791577  0.94149678  0.31221124     0.09600
H746        H  0.01118388  0.91387807  0.33610421     0.13200
H747        H  0.08458000  0.00261722  0.27801742     0.11900
H748        H  0.13195740  0.99265154  0.28610205     0.12900
H749        H  0.15629557  0.96200818  0.30675106     0.12100
H750        H  0.03525089  0.89508334  0.35880042     0.09200
H751        H  0.06210864  0.86799658  0.37952110     0.12500
H752        H  0.15202902  0.92018831  0.33581765     0.14300
C753        C  0.28240214  0.56292885  0.56225771    -0.01200
C754        C  0.24869734  0.55047510  0.55435163    -0.09200
C755        C  0.23499369  0.52612934  0.53633591    -0.18000
C756        C  0.25466871  0.51330900  0.52537599     0.04400
C757        C  0.28838599  0.52484895  0.53411824     0.18600
C758        C  0.30192612  0.54945737  0.55240084    -0.19400
C759        C  0.30851068  0.01211149  0.52430013    -0.20700
C760        C  0.29596430  0.98835650  0.50581754    -0.19200
C761        C  0.26313997  0.97705858  0.49651570     0.20000
C762        C  0.24206940  0.98950529  0.50606279     0.02100
C763        C  0.20938881  0.97779518  0.49570987    -0.14000
C764        C  0.19775331  0.95397656  0.47721950    -0.11700
C765        C  0.21820320  0.94107466  0.46828658     0.01600
C766        C  0.25111654  0.95312071  0.47782297    -0.23900
H767        H  0.23277815  0.56001081  0.56183584     0.09600
H768        H  0.20895225  0.51808496  0.53135691     0.13200
H769        H  0.32795979  0.55872956  0.55847628     0.11900
H770        H  0.33415824  0.02062779  0.53092602     0.13100
H771        H  0.31214204  0.97891410  0.49863835     0.12100
H772        H  0.19205805  0.48641450  0.50147515     0.09200
H773        H  0.17228799  0.94523271  0.47016655     0.12500
H774        H  0.26721839  0.94331544  0.47108620     0.14300
C775        C  0.43786490  0.71856899  0.56285631    -0.01200
C776        C  0.45365809  0.69988601  0.55589318    -0.09200
C777        C  0.47848650  0.71157105  0.53788523    -0.18000
C778        C  0.48832647  0.74249638  0.52605340     0.04400
C779        C  0.47284881  0.76178522  0.53359771     0.18600
C780        C  0.44794481  0.74974932  0.55180620    -0.19400
C781        C  0.48205984  0.79283910  0.52277016    -0.20700
C782        C  0.50639833  0.80523634  0.50454917    -0.19200
C783        C  0.02186146  0.78672000  0.49654174     0.20000
C784        C  0.01290603  0.75496344  0.50703404     0.02100
C785        C  0.02884892  0.73704249  0.49792688    -0.14000
C786        C  0.05313272  0.75042510  0.47957762    -0.11700
C787        C  0.06244335  0.78206000  0.46966351     0.01600
C788        C  0.04642946  0.79992866  0.47814293    -0.23900
H789        H  0.44651507  0.67579056  0.56419045     0.09600
H790        H  0.98931962  0.69566972  0.53360119     0.13200
H791        H  0.43592675  0.76446895  0.55702849     0.11900
H792        H  0.47038216  0.80767710  0.52845325     0.13100
H793        H  0.51308767  0.82944348  0.49659843     0.12100
H794        H  0.02323131  0.71264492  0.50459724     0.09200
H795        H  0.06512033  0.73608556  0.47344318     0.12500
H796        H  0.05334829  0.82442663  0.47060446     0.14300
C797        C  0.28219926  0.72250768  0.56222762    -0.01200
C798        C  0.29969799  0.75718312  0.55772975    -0.09200
C799        C  0.28793065  0.77123170  0.54032482    -0.18000
C800        C  0.25824637  0.75083814  0.52660871     0.04400
C801        C  0.24034548  0.71571921  0.53150192     0.18600
C802        C  0.25227215  0.70201960  0.54921783    -0.19400
C803        C  0.21088971  0.69432750  0.51846044    -0.20700
C804        C  0.19881306  0.70704256  0.50047213    -0.19200
C805        C  0.21592330  0.74144546  0.49507991     0.20000
C806        C  0.24586202  0.76389219  0.50808084     0.02100
C807        C  0.26219328  0.79837659  0.50183501    -0.14000
C808        C  0.24940392  0.80998855  0.48346724    -0.11700
C809        C  0.21985904  0.78781079  0.47076229     0.01600
C810        C  0.20320693  0.75353647  0.47671568    -0.23900
H811        H  0.32282763  0.77358015  0.56755862     0.09600
H812        H  0.30289411  0.79806909  0.53790396     0.13200
H813        H  0.23854770  0.67508936  0.55244652     0.11900
H814        H  0.19717132  0.66751782  0.52211843     0.13100
H815        H  0.17598713  0.68981388  0.49064490     0.12100
H816        H  0.28486917  0.81709990  0.51078249     0.09200
H817        H  0.26256232  0.83668743  0.47945743     0.12500
H818        H  0.18024783  0.73617527  0.46705796     0.14300
C819        C  0.46182182  0.53014702  0.73993971    -0.01200
C820        C  0.42942567  0.52430193  0.74705039    -0.09200
C821        C  0.41378129  0.54050744  0.73547105    -0.18000
C822        C  0.42999960  0.56290024  0.71606354     0.04400
C823        C  0.46221290  0.56747340  0.70826234     0.18600
C824        C  0.47773229  0.55119357  0.72021325    -0.19400
C825        C  0.47890174  0.58844210  0.68864621    -0.20700
C826        C  0.46409151  0.60459261  0.67628053    -0.19200
C827        C  0.43254641  0.60076714  0.68352830     0.20000
C828        C  0.41532413  0.58054481  0.70387111     0.02100
C829        C  0.38431213  0.57905943  0.71105644    -0.14000
C830        C  0.37045063  0.59587661  0.69795636    -0.11700
C831        C  0.38674249  0.61418993  0.67717912     0.01600
C832        C  0.41799257  0.61687467  0.67031320    -0.23900
H833        H  0.41641283  0.50753296  0.76198830     0.09600
H834        H  0.38896580  0.53489354  0.74203044     0.13200
H835        H  0.50273591  0.55565471  0.71458967     0.11900
H836        H  0.50344716  0.59208694  0.68263869     0.13100
H837        H  0.47745995  0.62025387  0.66092097     0.12100
H838        H  0.37021886  0.56513528  0.72669823     0.09200
H839        H  0.34635519  0.59365269  0.70364707     0.12500
H840        H  0.43104020  0.63156067  0.65448310     0.14300
C841        C  0.06338877  0.53399657  0.73429127    -0.01200
C842        C  0.06530523  0.51916540  0.71265804    -0.09200
C843        C  0.09443088  0.53454007  0.69826363    -0.18000
C844        C  0.12290849  0.56534635  0.70530773     0.04400
C845        C  0.12007902  0.58113157  0.72668050     0.18600
C846        C  0.09000609  0.56605764  0.74031986    -0.19400
C847        C  0.14767354  0.61124694  0.73482540    -0.20700
C848        C  0.17854982  0.62561834  0.72255339    -0.19200
C849        C  0.18228653  0.61061343  0.70155173     0.20000
C850        C  0.15428130  0.58067598  0.69227350     0.02100
C851        C  0.15905104  0.56728671  0.67047867    -0.14000
C852        C  0.19038549  0.58278078  0.65862549    -0.11700
C853        C  0.21807531  0.61167034  0.66824525     0.01600
C854        C  0.21392809  0.62545451  0.68972227    -0.23900
H855        H  0.04471183  0.49512023  0.70707245     0.09600
H856        H  0.09421158  0.52107140  0.68219240     0.13200
H857        H  0.08796426  0.57865456  0.75635328     0.11900
H858        H  0.14564093  0.62330849  0.75116115     0.13100
H859        H  0.19969251  0.64859256  0.72957759     0.12100
H860        H  0.13907303  0.54507675  0.66199135     0.09200
H861        H  0.19308420  0.57185404  0.64192443     0.12500
H862        H  0.23518782  0.64819511  0.69695853     0.14300
C863        C  0.46173606  0.93080861  0.73870902    -0.01200
C864        C  0.42854518  0.90612094  0.74477980    -0.09200
C865        C  0.41267451  0.87522578  0.73263828    -0.18000
C866        C  0.42934503  0.86841970  0.71351942     0.04400
C867        C  0.46208219  0.89449151  0.70643124     0.18600
C868        C  0.47804964  0.92499004  0.71926905    -0.19400
C869        C  0.47878044  0.88995490  0.68662080    -0.20700
C870        C  0.46342945  0.86014218  0.67343587    -0.19200
C871        C  0.43165712  0.83361375  0.68035766     0.20000
C872        C  0.41459249  0.83695764  0.70094068     0.02100
C873        C  0.38385592  0.80846894  0.70824038    -0.14000
C874        C  0.37010869  0.77836514  0.69512102    -0.11700
C875        C  0.38609431  0.77590353  0.67410566     0.01600
C876        C  0.41693995  0.80360748  0.66688538    -0.23900
H877        H  0.41514113  0.91048329  0.75940145     0.09600
H878        H  0.38722321  0.85735339  0.73838242     0.13200
H879        H  0.00360623  0.94381815  0.71451454     0.11900
H880        H  0.00363007  0.90983776  0.68102287     0.13100
H881        H  0.47674047  0.85763303  0.65791860     0.12100
H882        H  0.37017864  0.80854067  0.72422063     0.09200
H883        H  0.34641759  0.75712622  0.70114310     0.12500
H884        H  0.42981838  0.80159674  0.65091034     0.14300
C885        C  0.43700791  0.72337284  0.97085834    -0.01200
C886        C  0.44973087  0.75701913  0.97782899    -0.09200
C887        C  0.47369744  0.77101166  0.99637149    -0.18000
C888        C  0.48566445  0.75160854  0.00872002     0.04400
C889        C  0.47310246  0.71764744  0.00126692     0.18600
C890        C  0.44916922  0.70398340  0.98250843    -0.19400
C891        C  0.48426527  0.69735684  0.01268584    -0.20700
C892        C  0.50798914  0.71015419  0.03127289    -0.19200
C893        C  0.02099004  0.74349877  0.03895722     0.20000
C894        C  0.00978077  0.76466460  0.02803611     0.02100
C895        C  0.02342022  0.79798545  0.03684601    -0.14000
C896        C  0.04822413  0.81012316  0.05495575    -0.11700
C897        C  0.06010877  0.78949569  0.06495797     0.01600
C898        C  0.04574030  0.75596441  0.05722145    -0.23900
H899        H  0.44082702  0.77260567  0.96910853     0.09600
H900        H  0.98219210  0.79702017  0.00065243     0.13200
H901        H  0.43946653  0.67788056  0.97733347     0.11900
H902        H  0.47470526  0.67143161  0.00711857     0.13100
H903        H  0.51638826  0.69389839  0.03960591     0.12100
H904        H  0.01583986  0.81546459  0.02992513     0.09200
H905        H  0.05875512  0.83609202  0.06068220     0.12500
H906        H  0.05452076  0.73964503  0.06494501     0.14300
C907        C  0.28402210  0.56329192  0.96755176    -0.01200
C908        C  0.30434703  0.54955833  0.97527206    -0.09200
C909        C  0.29308849  0.52516216  0.99335174    -0.18000
C910        C  0.26098700  0.51377241  0.00451726     0.04400
C911        C  0.24024888  0.52741588  0.99634943     0.18600
C912        C  0.25175733  0.55168399  0.97795977    -0.19400
C913        C  0.20833195  0.51717810  0.00683120    -0.20700
C914        C  0.19645363  0.99358530  0.02532666    -0.19200
C915        C  0.21615769  0.97957456  0.03373988     0.20000
C916        C  0.24875257  0.98948261  0.02351454     0.02100
C917        C  0.26758855  0.97455359  0.03273149    -0.14000
C918        C  0.25431877  0.95037894  0.05093624    -0.11700
C919        C  0.22193811  0.94025074  0.06067138     0.01600
C920        C  0.20319132  0.95532783  0.05215401    -0.23900
H921        H  0.32940570  0.55805898  0.96756386     0.09600
H922        H  0.31033590  0.51607783  0.99833592     0.13200
H923        H  0.23586238  0.56224852  0.97224483     0.11900
H924        H  0.19245920  0.52756577  0.00072253     0.13100
H925        H  0.17160026  0.98615273  0.03305143     0.12100
H926        H  0.29251704  0.98070077  0.02613326     0.09200
H927        H  0.26940795  0.93918987  0.05713906     0.12500
H928        H  0.17810122  0.94773340  0.05952571     0.14300
C929        C  0.27743153  0.71589585  0.96913004    -0.01200
C930        C  0.24269004  0.69793402  0.97500512    -0.09200
C931        C  0.22914981  0.70948572  0.99301366    -0.18000
C932        C  0.25012585  0.73946369  0.00594510     0.04400
C933        C  0.28533207  0.75762334  0.99981386     0.18600
C934        C  0.29851578  0.74584604  0.98156659    -0.19400
C935        C  0.30732356  0.78739241  0.01200706    -0.20700
C936        C  0.29507712  0.79981245  0.03008863    -0.19200
C937        C  0.26055678  0.78271259  0.03648092     0.20000
C938        C  0.23754928  0.75216176  0.02466301     0.02100
C939        C  0.20300490  0.73582845  0.03207441    -0.14000
C940        C  0.19175758  0.74964873  0.05006624    -0.11700
C941        C  0.21443420  0.78012578  0.06128988     0.01600
C942        C  0.24889531  0.79629156  0.05451650    -0.23900
H943        H  0.22582967  0.67466365  0.96572963     0.09600
H944        H  0.20222197  0.69428151  0.99643631     0.13200
H945        H  0.32551532  0.75982808  0.97736337     0.11900
H946        H  0.33420383  0.80125842  0.00746673     0.13100
H947        H  0.31274072  0.82305659  0.03908807     0.12100
H948        H  0.18396085  0.71248728  0.02421358     0.09200
H949        H  0.16497645  0.73662840  0.05488733     0.12500
H950        H  0.26675555  0.81984908  0.06308345     0.14300
C951        C  0.47378407  0.53809086  0.79421683    -0.01200
C952        C  0.48135474  0.57061894  0.78717898    -0.09200
C953        C  0.46845279  0.58832959  0.80004793    -0.18000
C954        C  0.44828185  0.57428225  0.82088198     0.04400
C955        C  0.44390116  0.54291188  0.82932286     0.18600
C956        C  0.45640790  0.52513475  0.81588979    -0.19400
C957        C  0.42634668  0.52901767  0.85083516    -0.20700
C958        C  0.41226294  0.54525995  0.86391495    -0.19200
C959        C  0.41439870  0.57514511  0.85534311     0.20000
C960        C  0.43214268  0.59001151  0.83357840     0.02100
C961        C  0.43175885  0.61916054  0.82504047    -0.14000
C962        C  0.41442024  0.63285661  0.83766386    -0.11700
C963        C  0.39772643  0.61843366  0.85936295     0.01600
C964        C  0.39813467  0.58981360  0.86819255    -0.23900
H965        H  0.49660867  0.58209329  0.77123867     0.09600
H966        H  0.47473243  0.61291228  0.79332432     0.13200
H967        H  0.45143132  0.00068354  0.82191993     0.11900
H968        H  0.42332785  0.00533375  0.85752108     0.13100
H969        H  0.39873989  0.53384122  0.88050114     0.12100
H970        H  0.44382844  0.63136957  0.80836404     0.09200
H971        H  0.41441102  0.65504440  0.83058884     0.12500
H972        H  0.38484314  0.57830584  0.88485138     0.14300
C973        C  0.06928834  0.53019937  0.78966772    -0.01200
C974        C  0.09642494  0.52534927  0.78215899    -0.09200
C975        C  0.12787370  0.54120423  0.79414824    -0.18000
C976        C  0.13282309  0.56154891  0.81472649     0.04400
C977        C  0.10437259  0.56421026  0.82332918     0.18600
C978        C  0.07332383  0.54914166  0.81058710    -0.19400
C979        C  0.10705225  0.58194513  0.84461411    -0.20700
C980        C  0.13737505  0.59705280  0.85764086    -0.19200
C981        C  0.16620136  0.59594811  0.84922191     0.20000
C982        C  0.16468500  0.57889072  0.82734281     0.02100
C983        C  0.19526357  0.58051475  0.81892940    -0.14000
C984        C  0.22574160  0.59756412  0.83210705    -0.11700
C985        C  0.22654207  0.61288358  0.85424243     0.01600
C986        C  0.19663727  0.61203034  0.86257674    -0.23900
H987        H  0.09349248  0.00965929  0.76662699     0.09600
H988        H  0.14766435  0.53663546  0.78717649     0.13200
H989        H  0.05239673  0.55270205  0.81678114     0.11900
H990        H  0.08539792  0.58381774  0.85139946     0.13100
H991        H  0.13844255  0.61018224  0.87424704     0.12100
H992        H  0.19646933  0.56924953  0.80207094     0.09200
H993        H  0.24856298  0.59804131  0.82525090     0.12500
H994        H  0.19715679  0.62433100  0.87949373     0.14300
C995        C  0.46993122  0.93246691  0.79377647    -0.01200
C996        C  0.45296124  0.93098759  0.81527985    -0.09200
C997        C  0.43846556  0.90196523  0.82942673    -0.18000
C998        C  0.43997998  0.87290362  0.82226453     0.04400
C999        C  0.45764115  0.87455819  0.80056746     0.18600
C1000       C  0.47346068  0.90453408  0.78710915    -0.19400
C1001       C  0.45855954  0.84601794  0.79207312    -0.20700
C1002       C  0.44156757  0.81556285  0.80438928    -0.19200
C1003       C  0.42412293  0.81315965  0.82590096     0.20000
C1004       C  0.42389291  0.84206139  0.83550395     0.02100
C1005       C  0.40757242  0.83881649  0.85795434    -0.14000
C1006       C  0.39148154  0.80803247  0.87001672    -0.11700
C1007       C  0.39060448  0.77930999  0.86006361     0.01600
C1008       C  0.40703556  0.78204770  0.83797612    -0.23900
H1009       H  0.44989773  0.95194890  0.82094156     0.09600
H1010       H  0.42518576  0.90275806  0.84540246     0.13200
H1011       H  0.98763756  0.90571357  0.77096503     0.11900
H1012       H  0.97181935  0.84704349  0.77546621     0.13100
H1013       H  0.44216672  0.79375166  0.79707249     0.12100
H1014       H  0.40718308  0.85967770  0.86687630     0.09200
H1015       H  0.37935746  0.80665507  0.88721614     0.12500
H1016       H  0.40717940  0.76010264  0.83044505     0.14300
O1017       O  0.82292087  0.22098345  0.94433724    -0.78400
C1018       C  0.90945530  0.20785615  0.95267850     0.82700
O1019       O  0.86188907  0.21920549  0.86200053    -0.79500
O1020       O  0.87945911  0.13044108  0.89610627    -0.81000
O1021       O  0.77808812  0.10243172  0.94231685    -0.80800
O1022       O  0.77430814  0.17248756  0.94348298    -0.79400
Zn1023     Zn  0.85565738  0.21439761  0.92325516     1.55700
O1024       O  0.82888889  0.10521078  0.94423908    -0.80800
Cd1025     Cd  0.78662297  0.14345107  0.92140379     1.59700
Cd1026     Cd  0.83702847  0.16939016  0.87411902     1.59600
O1027       O  0.75396346  0.12760921  0.89224107    -0.80800
O1028       O  0.83504586  0.16896716  0.91042486    -1.91300
Cd1029     Cd  0.85996639  0.14626474  0.92348245     1.59900
O1030       O  0.78736538  0.14291935  0.85954537    -0.80700
O1031       O  0.89931880  0.17769896  0.94590260    -0.79400
C1032       C  0.87387993  0.24710516  0.87344800     0.83100
C1033       C  0.79218315  0.20253806  0.95114847     0.82800
O1034       O  0.89550360  0.22451882  0.94485473    -0.78300
C1035       C  0.79756896  0.09152860  0.95016383     0.83600
O1036       O  0.87217243  0.24819468  0.89638348    -0.78400
C1037       C  0.75779200  0.12871686  0.86937896     0.83700
C1038       C  0.88003353  0.13301451  0.87319688     0.84100
O1039       O  0.86565006  0.14735591  0.86212136    -0.80900
O1040       O  0.89620614  0.22230823  0.58724411    -0.78400
C1041       C  0.79590083  0.20725293  0.57943691     0.82700
O1042       O  0.85329812  0.21628596  0.66988052    -0.79500
O1043       O  0.75006980  0.12588288  0.63234639    -0.81000
O1044       O  0.82709267  0.10194327  0.58808488    -0.80800
O1045       O  0.89841995  0.17454628  0.58801979    -0.79400
Zn1046     Zn  0.85680423  0.21454092  0.60866837     1.55700
O1047       O  0.77963076  0.10549027  0.58483860    -0.80800
Cd1048     Cd  0.85754941  0.14379053  0.60944726     1.59700
Cd1049     Cd  0.82962192  0.16723330  0.65643015     1.59600
O1050       O  0.87511121  0.12917646  0.63894450    -0.80800
O1051       O  0.83324030  0.16835308  0.62029147    -1.91300
Cd1052     Cd  0.78672963  0.14488921  0.60621040     1.59900
O1053       O  0.85331660  0.14147089  0.67122398    -0.80700
O1054       O  0.77769248  0.17627717  0.58472707    -0.79400
C1055       C  0.87046524  0.24474655  0.65945191     0.83100
C1056       C  0.90957312  0.20456475  0.58052287     0.82800
O1057       O  0.82587796  0.22491933  0.58800600    -0.78300
C1058       C  0.79721153  0.09140873  0.57951988     0.83600
O1059       O  0.87439679  0.24720428  0.63659115    -0.78400
C1060       C  0.87078576  0.12915405  0.66171296     0.83700
C1061       C  0.75079216  0.12789461  0.65526285     0.84100
O1062       O  0.77868927  0.14335897  0.66707531    -0.80900
C1063       C  0.50182552  0.49890534  0.78853655     0.45600
H1064       H  0.00400240  0.49955513  0.80852235    -0.03400
C1065       C  0.49688153  0.49731530  0.74162663     0.45600
H1066       H  0.49445993  0.49662887  0.72163789    -0.03400
C1067       C  0.53660225  0.01565900  0.77575595    -0.17100
C1068       C  0.98287689  0.46293756  0.77808575    -0.16900
C1069       C  0.98336342  0.01736876  0.77862549    -0.17300
C1070       C  0.53399308  0.01564153  0.75089297    -0.17200
C1071       C  0.98009810  0.46216859  0.75328539    -0.16800
C1072       C  0.97989883  0.01561775  0.75389157    -0.17100
O1073       O  0.67563717  0.28225356  0.44425042    -0.78400
C1074       C  0.59033820  0.29730698  0.45170282     0.82700
O1075       O  0.63996316  0.28797286  0.36099334    -0.79500
O1076       O  0.62189215  0.37508149  0.39569047    -0.81000
O1077       O  0.72332170  0.40203763  0.44254790    -0.80800
O1078       O  0.72364982  0.33125410  0.44528110    -0.79400
Zn1079     Zn  0.64421295  0.29018827  0.42251230     1.55700
O1080       O  0.67281871  0.39988787  0.44460577    -0.80800
Cd1081     Cd  0.71366558  0.36049751  0.42220403     1.59700
Cd1082     Cd  0.66574327  0.33734442  0.37413813     1.59600
O1083       O  0.74746848  0.37469368  0.39401711    -0.80800
O1084       O  0.66575165  0.33608628  0.41043404    -1.91300
Cd1085     Cd  0.64113563  0.35914774  0.42335406     1.59900
O1086       O  0.71564043  0.36103616  0.36061713    -0.80700
O1087       O  0.60141704  0.32779573  0.44544013    -0.79400
C1088       C  0.62851369  0.25968408  0.37180485     0.83100
C1089       C  0.70572041  0.30095071  0.45224968     0.82800
O1090       O  0.60361339  0.28011893  0.44357131    -0.78300
C1091       C  0.70416769  0.41317320  0.45056327     0.83600
O1092       O  0.62953255  0.25763415  0.39473385    -0.78400
C1093       C  0.74467364  0.37377839  0.37109543     0.83700
C1094       C  0.62501815  0.37599064  0.37279177     0.84100
O1095       O  0.64161959  0.36381339  0.36186499    -0.80900
O1096       O  0.60182526  0.28494261  0.08842031    -0.78400
C1097       C  0.70195970  0.29605855  0.07900000     0.82700
O1098       O  0.64459969  0.28722719  0.16920092    -0.79500
O1099       O  0.74942022  0.37650619  0.13505521    -0.81000
O1100       O  0.67705096  0.40277714  0.08652883    -0.80800
O1101       O  0.60231036  0.33402869  0.08869194    -0.79400
Zn1102     Zn  0.64183231  0.29104855  0.10811963     1.55700
O1103       O  0.72431952  0.39862955  0.08512169    -0.80800
Cd1104     Cd  0.64536530  0.36356215  0.10893483     1.59700
Cd1105     Cd  0.66801634  0.33643699  0.15655065     1.59600
O1106       O  0.63207980  0.38294724  0.13789674    -0.80800
O1107       O  0.66702660  0.33679650  0.12030830    -1.91300
Cd1108     Cd  0.71445160  0.35872412  0.10743096     1.59900
O1109       O  0.64294467  0.36122670  0.17075024    -0.80700
O1110       O  0.72232569  0.32572576  0.08646225    -0.79400
C1111       C  0.62827507  0.25908057  0.15822714     0.83100
C1112       C  0.58931621  0.30347173  0.08187385     0.82800
O1113       O  0.67094311  0.28030443  0.08587374    -0.78300
C1114       C  0.70707306  0.41264396  0.07859296     0.83600
O1115       O  0.62475952  0.25732587  0.13533546    -0.78400
C1116       C  0.63164334  0.37913346  0.16071642     0.83700
C1117       C  0.74702433  0.37472076  0.15798815     0.84100
O1118       O  0.71828860  0.36008917  0.16882586    -0.80900
C1119       C  0.50071807  0.00814422  0.28844255     0.45600
H1120       H  0.50096059  0.00938480  0.30845309    -0.03400
C1121       C  0.50162431  0.00643593  0.24146002     0.45600
H1122       H  0.50201924  0.00551387  0.22141085    -0.03400
C1123       C  0.51888072  0.48957628  0.27829474    -0.17100
C1124       C  0.96473002  0.49047449  0.27715531    -0.16900
C1125       C  0.51893521  0.04319550  0.27674228    -0.17300
C1126       C  0.51922462  0.48857671  0.25349742    -0.17200
C1127       C  0.96543302  0.48900038  0.25223747    -0.16800
C1128       C  0.51975553  0.04234490  0.25191221    -0.17100
C1129       C  0.53848189  0.07269967  0.23645779    -0.01200
C1130       C  0.57204251  0.09707313  0.24206225    -0.09200
C1131       C  0.58809297  0.12763840  0.22963449    -0.18000
C1132       C  0.57121380  0.13444980  0.21069227     0.04400
C1133       C  0.53830564  0.10842190  0.20376412     0.18600
C1134       C  0.52227580  0.07806462  0.21674314    -0.19400
C1135       C  0.52135103  0.11303805  0.18415864    -0.20700
C1136       C  0.53635914  0.14304577  0.17125381    -0.19200
C1137       C  0.56818818  0.16958228  0.17813146     0.20000
C1138       C  0.58579951  0.16597117  0.19827558     0.02100
C1139       C  0.61680256  0.19432887  0.20542311    -0.14000
C1140       C  0.63005354  0.22467299  0.19272912    -0.11700
C1141       C  0.61329653  0.22752690  0.17229042     0.01600
C1142       C  0.58237900  0.19988580  0.16508689    -0.23900
H1143       H  0.58558642  0.09282996  0.25664233     0.09600
H1144       H  0.61372578  0.14534738  0.23517391     0.13200
H1145       H  0.49665917  0.05911921  0.21200438     0.11900
H1146       H  0.49635770  0.09322452  0.17868922     0.13100
H1147       H  0.52269665  0.14572540  0.15602632     0.12100
H1148       H  0.63106849  0.19401397  0.22098807     0.09200
H1149       H  0.65391559  0.24583680  0.19864277     0.12500
H1150       H  0.56901614  0.20220142  0.14950688     0.14300
C1151       C  0.93502452  0.46931057  0.23675869    -0.01200
C1152       C  0.91118658  0.43601351  0.24260590    -0.09200
C1153       C  0.88034021  0.41910685  0.23009224    -0.18000
C1154       C  0.87301369  0.43473976  0.21068480     0.04400
C1155       C  0.89891469  0.46715026  0.20327776     0.18600
C1156       C  0.92934098  0.48418321  0.21649407    -0.19400
C1157       C  0.89409694  0.48257805  0.18294226    -0.20700
C1158       C  0.86390786  0.46654313  0.16982785    -0.19200
C1159       C  0.83730315  0.43538194  0.17735428     0.20000
C1160       C  0.84111924  0.41934807  0.19822884     0.02100
C1161       C  0.81252731  0.38915739  0.20609619    -0.14000
C1162       C  0.78172855  0.37513073  0.19336244    -0.11700
C1163       C  0.77878601  0.39029759  0.17220752     0.01600
C1164       C  0.80665621  0.42036188  0.16428347    -0.23900
H1165       H  0.91589339  0.42351495  0.25758183     0.09600
H1166       H  0.86285918  0.39380332  0.23587044     0.13200
H1167       H  0.94809695  0.00947713  0.21143796     0.11900
H1168       H  0.91389192  0.00712715  0.17705761     0.13100
H1169       H  0.86104462  0.47896784  0.15400889     0.12100
H1170       H  0.81298635  0.37626079  0.22229984     0.09200
H1171       H  0.76032486  0.35196161  0.19980732     0.12500
H1172       H  0.80419550  0.43248499  0.14812555     0.14300
C1173       C  0.61756075  0.39641806  0.17554268    -0.01200
C1174       C  0.62338205  0.42830951  0.16850413    -0.09200
C1175       C  0.60829468  0.44434676  0.18082835    -0.18000
C1176       C  0.58606858  0.42857994  0.20047742     0.04400
C1177       C  0.58036013  0.39620195  0.20770637     0.18600
C1178       C  0.59652646  0.38067674  0.19546043    -0.19400
C1179       C  0.55804755  0.37929061  0.22677955    -0.20700
C1180       C  0.54113262  0.39374404  0.23877002    -0.19200
C1181       C  0.54635027  0.42561084  0.23214277     0.20000
C1182       C  0.56904190  0.44361164  0.21299062     0.02100
C1183       C  0.57362400  0.47586558  0.20717839    -0.14000
C1184       C  0.55690829  0.48982487  0.22011695    -0.11700
C1185       C  0.53506372  0.47223672  0.23914879     0.01600
C1186       C  0.52920578  0.43976213  0.24470079    -0.23900
H1187       H  0.63967893  0.44092906  0.15319507     0.09600
H1188       H  0.61412147  0.46881011  0.17418603     0.13200
H1189       H  0.59166521  0.35579053  0.20079382     0.11900
H1190       H  0.55344531  0.35458923  0.23235051     0.13100
H1191       H  0.02395138  0.37995404  0.25341796     0.12100
H1192       H  0.59030682  0.49123662  0.19297068     0.09200
H1193       H  0.56172657  0.01492955  0.21556463     0.12500
H1194       H  0.01157738  0.42564938  0.25905113     0.14300
C1195       C  0.93295773  0.47572322  0.29228745    -0.01200
C1196       C  0.93258184  0.46173287  0.31487988    -0.09200
C1197       C  0.90256404  0.44473680  0.32818065    -0.18000
C1198       C  0.87134283  0.44076117  0.31923565     0.04400
C1199       C  0.87182924  0.45591844  0.29672409     0.18600
C1200       C  0.90268730  0.47448914  0.28414030    -0.19400
C1201       C  0.84142191  0.95185948  0.28666792    -0.20700
C1202       C  0.81047825  0.43314448  0.29859941    -0.19200
C1203       C  0.80927558  0.41871622  0.32116140     0.20000
C1204       C  0.83976288  0.42245091  0.33184927     0.02100
C1205       C  0.83739098  0.40811639  0.35488119    -0.14000
C1206       C  0.80637339  0.39176223  0.36706252    -0.11700
C1207       C  0.77645730  0.38851014  0.35668764     0.01600
C1208       C  0.77791231  0.40134620  0.33343614    -0.23900
H1209       H  0.95537990  0.46320496  0.32240136     0.09600
H1210       H  0.90463659  0.43432852  0.34514885     0.13200
H1211       H  0.90276229  0.98704396  0.26751662     0.11900
H1212       H  0.84152203  0.96294562  0.26932451     0.13100
H1213       H  0.78739319  0.43039506  0.29029385     0.12100
H1214       H  0.85912329  0.40973960  0.36430327     0.09200
H1215       H  0.80590951  0.38184397  0.38492929     0.12500
H1216       H  0.75491203  0.39910967  0.32532467     0.14300
C1217       C  0.61368278  0.22812674  0.35763064    -0.01200
C1218       C  0.61638430  0.20057546  0.36618952    -0.09200
C1219       C  0.60179583  0.17017716  0.35354097    -0.18000
C1220       C  0.58324620  0.16606082  0.33199251     0.04400
C1221       C  0.58006285  0.19395601  0.32357974     0.18600
C1222       C  0.59582473  0.22480185  0.33613474    -0.19400
C1223       C  0.56064006  0.19069338  0.30295163    -0.20700
C1224       C  0.54390726  0.16017864  0.29064789    -0.19200
C1225       C  0.54693830  0.13243159  0.29827669     0.20000
C1226       C  0.56722830  0.13513046  0.31875925     0.02100
C1227       C  0.57072240  0.10679229  0.32498932    -0.14000
C1228       C  0.55468207  0.07711330  0.31148181    -0.11700
C1229       C  0.53448249  0.07452004  0.29151087     0.01600
C1230       C  0.53009096  0.10205213  0.28533862    -0.23900
H1231       H  0.63005104  0.20258738  0.38279031     0.09600
H1232       H  0.60487042  0.15018262  0.36141748     0.13200
H1233       H  0.59323456  0.24591195  0.32961221     0.11900
H1234       H  0.55796129  0.21176149  0.29648415     0.13100
H1235       H  0.52874884  0.15836401  0.27489709     0.12100
H1236       H  0.58629518  0.10697412  0.33985289     0.09200
H1237       H  0.55872269  0.05627533  0.31638503     0.12500
H1238       H  0.51402809  0.10002231  0.27009401     0.14300
C1239       C  0.53481775  0.47479732  0.29406037    -0.01200
C1240       C  0.51478547  0.44975459  0.31059604    -0.09200
C1241       C  0.52852643  0.43345800  0.32417175    -0.18000
C1242       C  0.56289819  0.44129827  0.32117250     0.04400
C1243       C  0.58302259  0.46642099  0.30398755     0.18600
C1244       C  0.56911757  0.48345773  0.29109199    -0.19400
C1245       C  0.61656111  0.47369996  0.29930057    -0.20700
C1246       C  0.63043256  0.45614918  0.31105547    -0.19200
C1247       C  0.61148677  0.43166317  0.32836156     0.20000
C1248       C  0.57771572  0.42448941  0.33411311     0.02100
C1249       C  0.56041429  0.40111094  0.35279091    -0.14000
C1250       C  0.57590158  0.38537663  0.36504462    -0.11700
C1251       C  0.60867683  0.39173331  0.35878179     0.01600
C1252       C  0.62629715  0.41466741  0.34028681    -0.23900
H1253       H  0.48791470  0.44149492  0.31221072     0.09600
H1254       H  0.51118314  0.41387624  0.33610347     0.13200
H1255       H  0.58458002  0.50261909  0.27801920     0.11900
H1256       H  0.63195811  0.49265452  0.28610406     0.12900
H1257       H  0.65629648  0.46201075  0.30675245     0.12100
H1258       H  0.53525025  0.39508227  0.35880003     0.09200
H1259       H  0.56210824  0.36799543  0.37952019     0.12500
H1260       H  0.65202963  0.42018958  0.33581803     0.14300
C1261       C  0.78240331  0.06292957  0.56225734    -0.01200
C1262       C  0.74869821  0.05047504  0.55435166    -0.09200
C1263       C  0.73499474  0.02612938  0.53633584    -0.18000
C1264       C  0.75467021  0.01330990  0.52537544     0.04400
C1265       C  0.78838795  0.02485088  0.53411712     0.18600
C1266       C  0.80192789  0.04945919  0.55239983    -0.19400
C1267       C  0.80850873  0.51210881  0.52430134    -0.20700
C1268       C  0.79596211  0.48835368  0.50581887    -0.19200
C1269       C  0.76313817  0.47705668  0.49651657     0.20000
C1270       C  0.74206819  0.48950437  0.50606315     0.02100
C1271       C  0.70938801  0.47779527  0.49570969    -0.14000
C1272       C  0.69775239  0.45397656  0.47721936    -0.11700
C1273       C  0.71820169  0.44107373  0.46828696     0.01600
C1274       C  0.75111463  0.45311882  0.47782388    -0.23900
H1275       H  0.73277865  0.06001003  0.56183624     0.09600
H1276       H  0.70895311  0.01808448  0.53135712     0.13200
H1277       H  0.82796185  0.05873214  0.55847485     0.11900
H1278       H  0.83415610  0.52062449  0.53092752     0.13100
H1279       H  0.81213939  0.47891049  0.49864005     0.12100
H1280       H  0.69205827  0.98641287  0.50147605     0.09200
H1281       H  0.67228732  0.44523342  0.47016596     0.12500
H1282       H  0.76721601  0.44331279  0.47108753     0.14300
C1283       C  0.93786697  0.21857105  0.56285881    -0.01200
C1284       C  0.95366167  0.19988907  0.55589672    -0.09200
C1285       C  0.97849008  0.21157419  0.53788872    -0.18000
C1286       C  0.98832818  0.24249836  0.52605574     0.04400
C1287       C  0.97284950  0.26178651  0.53359937     0.18600
C1288       C  0.94794566  0.24975067  0.55180797    -0.19400
C1289       C  0.98205920  0.29283960  0.52277102    -0.20700
C1290       C  0.00639722  0.30523660  0.50454968    -0.19200
C1291       C  0.52186084  0.28671986  0.49654191     0.20000
C1292       C  0.51290600  0.25496367  0.50703464     0.02100
C1293       C  0.52884846  0.23704246  0.49792724    -0.14000
C1294       C  0.55313155  0.25042459  0.47957756    -0.11700
C1295       C  0.56244188  0.28205928  0.46966317     0.01600
C1296       C  0.54642816  0.29992807  0.47814268    -0.23900
H1297       H  0.94651980  0.17579444  0.56419468     0.09600
H1298       H  0.48932279  0.19567194  0.53360374     0.13200
H1299       H  0.93592656  0.26446957  0.55702953     0.11900
H1300       H  0.97038091  0.30767714  0.52845368     0.13100
H1301       H  0.01308552  0.32944303  0.49659831     0.12100
H1302       H  0.52323086  0.21264482  0.50459774     0.09200
H1303       H  0.56511904  0.23608492  0.47344300     0.12500
H1304       H  0.55334674  0.32442590  0.47060400     0.14300
C1305       C  0.78220069  0.22250735  0.56222583    -0.01200
C1306       C  0.79969893  0.25718276  0.55772811    -0.09200
C1307       C  0.78793121  0.27123124  0.54032338    -0.18000
C1308       C  0.75824692  0.25083740  0.52660731     0.04400
C1309       C  0.74034681  0.21571842  0.53150009     0.18600
C1310       C  0.75227387  0.20201893  0.54921581    -0.19400
C1311       C  0.71089114  0.19432643  0.51845861    -0.20700
C1312       C  0.69881373  0.20704145  0.50047073    -0.19200
C1313       C  0.71592313  0.24144450  0.49507906     0.20000
C1314       C  0.74586183  0.26389145  0.50807994     0.02100
C1315       C  0.76219216  0.29837591  0.50183462    -0.14000
C1316       C  0.74940209  0.30998789  0.48346737    -0.11700
C1317       C  0.71985728  0.28780985  0.47076240     0.01600
C1318       C  0.70320597  0.25353544  0.47671531    -0.23900
H1319       H  0.82282847  0.27358006  0.56755714     0.09600
H1320       H  0.80289414  0.29806858  0.53790275     0.13200
H1321       H  0.73854981  0.17508869  0.55244435     0.11900
H1322       H  0.69717339  0.16751681  0.52211626     0.13100
H1323       H  0.67598798  0.18981272  0.49064358     0.12100
H1324       H  0.78486812  0.31709951  0.51078213     0.09200
H1325       H  0.76255983  0.33668670  0.47945792     0.12500
H1326       H  0.68024698  0.23617407  0.46705754     0.14300
C1327       C  0.96182162  0.03014820  0.73994092    -0.01200
C1328       C  0.92942580  0.02430364  0.74705205    -0.09200
C1329       C  0.91378132  0.04050918  0.73547281    -0.18000
C1330       C  0.92999914  0.06290139  0.71606492     0.04400
C1331       C  0.96221223  0.06747429  0.70826345     0.18600
C1332       C  0.97773173  0.05119445  0.72021425    -0.19400
C1333       C  0.97890078  0.08844268  0.68864713    -0.20700
C1334       C  0.96409040  0.10459303  0.67628143    -0.19200
C1335       C  0.93254536  0.10076761  0.68352934     0.20000
C1336       C  0.91532336  0.08054561  0.70387233     0.02100
C1337       C  0.88431123  0.07906005  0.71105764    -0.14000
C1338       C  0.87044955  0.09587696  0.69795742    -0.11700
C1339       C  0.88674119  0.11419008  0.67718008     0.01600
C1340       C  0.91799130  0.11687484  0.67031416    -0.23900
H1341       H  0.91641324  0.00753502  0.76199013     0.09600
H1342       H  0.88896618  0.03489573  0.74203258     0.13200
H1343       H  0.00273509  0.05565528  0.71459038     0.11900
H1344       H  0.00344613  0.09208745  0.68263946     0.13100
H1345       H  0.97745861  0.12025403  0.66092176     0.12100
H1346       H  0.87021805  0.06513593  0.72669937     0.09200
H1347       H  0.84635393  0.09365291  0.70364814     0.12500
H1348       H  0.93103880  0.13156065  0.65448390     0.14300
C1349       C  0.56338805  0.03399774  0.73429125    -0.01200
C1350       C  0.56530317  0.01916820  0.71265682    -0.09200
C1351       C  0.59442835  0.03454326  0.69826198    -0.18000
C1352       C  0.62290705  0.06534817  0.70530698     0.04400
C1353       C  0.62007919  0.08113169  0.72668119     0.18600
C1354       C  0.59000646  0.06605783  0.74032070    -0.19400
C1355       C  0.64767513  0.11124513  0.73482733    -0.20700
C1356       C  0.67855118  0.12561615  0.72255509    -0.19200
C1357       C  0.68228616  0.11061308  0.70155184     0.20000
C1358       C  0.65427945  0.08067788  0.69227229     0.02100
C1359       C  0.65904740  0.06729091  0.67047573    -0.14000
C1360       C  0.69038177  0.08278452  0.65862242    -0.11700
C1361       C  0.71807317  0.11167150  0.66824366     0.01600
C1362       C  0.71392746  0.12545368  0.68972215    -0.23900
H1363       H  0.54470895  0.99512393  0.70707043     0.09600
H1364       H  0.59420798  0.02107584  0.68218983     0.13200
H1365       H  0.58796567  0.07865407  0.75635492     0.11900
H1366       H  0.64564381  0.12330528  0.75116429     0.13100
H1367       H  0.69969503  0.14858872  0.72958031     0.12100
H1368       H  0.63906794  0.04508307  0.66198716     0.09200
H1369       H  0.69307919  0.07185937  0.64192017     0.12500
H1370       H  0.73518842  0.14819244  0.69695959     0.14300
C1371       C  0.96173599  0.43080851  0.73870868    -0.01200
C1372       C  0.92854349  0.40612313  0.74477783    -0.09200
C1373       C  0.91267184  0.37522794  0.73263631    -0.18000
C1374       C  0.92934347  0.36841948  0.71351943     0.04400
C1375       C  0.96208300  0.39448895  0.70643326     0.18600
C1376       C  0.97805100  0.42498768  0.71927078    -0.19400
C1377       C  0.97878321  0.38994986  0.68662514    -0.20700
C1378       C  0.96343197  0.36013694  0.67344051    -0.19200
C1379       C  0.93165704  0.33361087  0.68036020     0.20000
C1380       C  0.91459001  0.33695723  0.70094087     0.02100
C1381       C  0.88385019  0.30847061  0.70823845    -0.14000
C1382       C  0.87010266  0.27836654  0.69511943    -0.11700
C1383       C  0.88609119  0.27590271  0.67410638     0.01600
C1384       C  0.91693968  0.30360452  0.66688814    -0.23900
H1385       H  0.91513887  0.41048728  0.75939816     0.09600
H1386       H  0.88721919  0.35735741  0.73837899     0.13200
H1387       H  0.50361016  0.44381442  0.71451798     0.11900
H1388       H  0.50363578  0.40983156  0.68102865     0.13100
H1389       H  0.97674473  0.35762579  0.65792510     0.12100
H1390       H  0.87017046  0.30854421  0.72421690     0.09200
H1391       H  0.84640905  0.25712910  0.70113981     0.12500
H1392       H  0.92982009  0.30159190  0.65091486     0.14300
C1393       C  0.93700615  0.22337275  0.97085960    -0.01200
C1394       C  0.94972862  0.25701891  0.97783043    -0.09200
C1395       C  0.97369551  0.27101166  0.99637273    -0.18000
C1396       C  0.98566326  0.25160888  0.00872088     0.04400
C1397       C  0.97310157  0.21764786  0.00126766     0.18600
C1398       C  0.94916807  0.20398365  0.98250937    -0.19400
C1399       C  0.98426491  0.19735754  0.01268630    -0.20700
C1400       C  0.00798898  0.21015497  0.03127319    -0.19200
C1401       C  0.52099016  0.24349933  0.03895710     0.20000
C1402       C  0.50977920  0.26466452  0.02803713     0.02100
C1403       C  0.52341755  0.29798489  0.03684783    -0.14000
C1404       C  0.54822183  0.31012271  0.05495730    -0.11700
C1405       C  0.56010795  0.28949588  0.06495850     0.01600
C1406       C  0.54574069  0.25596505  0.05722112    -0.23900
H1407       H  0.94082426  0.27260517  0.96911024     0.09600
H1408       H  0.48218671  0.29701878  0.00065592     0.13200
H1409       H  0.93946574  0.17788091  0.97733426     0.11900
H1410       H  0.97470501  0.17143225  0.00711894     0.13100
H1411       H  0.01638845  0.19389930  0.03960605     0.12100
H1412       H  0.51583607  0.31546359  0.02992771     0.09200
H1413       H  0.55875201  0.33609133  0.06068437     0.12500
H1414       H  0.55452239  0.23964617  0.06494378     0.14300
C1415       C  0.78402051  0.06328981  0.96755106    -0.01200
C1416       C  0.80434587  0.04955692  0.97527178    -0.09200
C1417       C  0.79308757  0.02516088  0.99335153    -0.18000
C1418       C  0.76098580  0.01377053  0.00451673     0.04400
C1419       C  0.74024680  0.02741257  0.99634803     0.18600
C1420       C  0.75175508  0.05168065  0.97795833    -0.19400
C1421       C  0.70832921  0.01717355  0.00682904    -0.20700
C1422       C  0.69645478  0.49358731  0.02532696    -0.19200
C1423       C  0.71615830  0.47957567  0.03373972     0.20000
C1424       C  0.74875306  0.48948338  0.02351430     0.02100
C1425       C  0.76758814  0.47455294  0.03273046    -0.14000
C1426       C  0.75431791  0.45037782  0.05093477    -0.11700
C1427       C  0.72193763  0.44025035  0.06067031     0.01600
C1428       C  0.70319147  0.45532842  0.05215348    -0.23900
H1429       H  0.82940496  0.05805829  0.96756398     0.09600
H1430       H  0.81033532  0.01607715  0.99833604     0.13200
H1431       H  0.73585961  0.06224429  0.97224289     0.11900
H1432       H  0.69245568  0.02755995  0.00071966     0.13100
H1433       H  0.67160166  0.48615506  0.03305177     0.12100
H1434       H  0.79251636  0.48069936  0.02613177     0.09200
H1435       H  0.76940656  0.43918772  0.05713709     0.12500
H1436       H  0.67810159  0.44773446  0.05952542     0.14300
C1437       C  0.77743006  0.21589550  0.96912976    -0.01200
C1438       C  0.74268876  0.19793318  0.97500544    -0.09200
C1439       C  0.72914875  0.20948503  0.99301410    -0.18000
C1440       C  0.75012476  0.23946353  0.00594498     0.04400
C1441       C  0.78533070  0.25762371  0.99981301     0.18600
C1442       C  0.79851419  0.24584631  0.98156565    -0.19400
C1443       C  0.80732217  0.28739329  0.01200565    -0.20700
C1444       C  0.79507604  0.29981332  0.03008742    -0.19200
C1445       C  0.76055597  0.28271289  0.03648047     0.20000
C1446       C  0.73754848  0.25216160  0.02466310     0.02100
C1447       C  0.70300439  0.23582788  0.03207518    -0.14000
C1448       C  0.69175728  0.24964828  0.05006707    -0.11700
C1449       C  0.71443385  0.28012578  0.06129017     0.01600
C1450       C  0.74889480  0.29629195  0.05451623    -0.23900
H1451       H  0.72582858  0.17466249  0.96573049     0.09600
H1452       H  0.70222113  0.19428040  0.99643733     0.13200
H1453       H  0.82551355  0.25982875  0.97736196     0.11900
H1454       H  0.83420230  0.30125970  0.00746478     0.13100
H1455       H  0.81273962  0.32305787  0.03908641     0.12100
H1456       H  0.68396033  0.21248632  0.02421476     0.09200
H1457       H  0.66497630  0.23662768  0.05488861     0.12500
H1458       H  0.76675489  0.31984968  0.06308268     0.14300
C1459       C  0.97378533  0.03809207  0.79421800    -0.01200
C1460       C  0.98135628  0.07062025  0.78718020    -0.09200
C1461       C  0.96845530  0.08833144  0.80004954    -0.18000
C1462       C  0.94828470  0.07428438  0.82088379     0.04400
C1463       C  0.94390369  0.04291383  0.82932455     0.18600
C1464       C  0.95640997  0.02513647  0.81589130    -0.19400
C1465       C  0.92634923  0.02901961  0.85083686    -0.20700
C1466       C  0.91226547  0.04526185  0.86391665    -0.19200
C1467       C  0.91440136  0.07514709  0.85534490     0.20000
C1468       C  0.93214587  0.09001386  0.83358039     0.02100
C1469       C  0.93176275  0.11916338  0.82504281    -0.14000
C1470       C  0.91442371  0.13285917  0.83766601    -0.11700
C1471       C  0.89772875  0.11843540  0.85936461     0.01600
C1472       C  0.89813686  0.08981526  0.86819413    -0.23900
H1473       H  0.99660976  0.08209429  0.77123959     0.09600
H1474       H  0.97473513  0.11291421  0.79332593     0.13200
H1475       H  0.95143114  0.50068308  0.82191896     0.11900
H1476       H  0.92332831  0.50533384  0.85752045     0.13100
H1477       H  0.89874223  0.03384295  0.88050277     0.12100
H1478       H  0.94383317  0.13137304  0.80836672     0.09200
H1479       H  0.91441490  0.15504721  0.83059121     0.12500
H1480       H  0.88484470  0.07830706  0.88485274     0.14300
C1481       C  0.56928818  0.03019950  0.78966767    -0.01200
C1482       C  0.59642410  0.02534808  0.78215934    -0.09200
C1483       C  0.62787291  0.04120262  0.79414859    -0.18000
C1484       C  0.63282306  0.06154852  0.81472628     0.04400
C1485       C  0.60437330  0.06421175  0.82332831     0.18600
C1486       C  0.57332447  0.04914320  0.81058637    -0.19400
C1487       C  0.60705379  0.08194851  0.84461241    -0.20700
C1488       C  0.63737670  0.09705632  0.85763895    -0.19200
C1489       C  0.66620220  0.09594949  0.84922081     0.20000
C1490       C  0.66468502  0.07888993  0.82734262     0.02100
C1491       C  0.69526285  0.08051138  0.81893013    -0.14000
C1492       C  0.72574095  0.09756057  0.83210778    -0.11700
C1493       C  0.72654216  0.11288249  0.85424218     0.01600
C1494       C  0.69663814  0.11203168  0.86257559    -0.23900
H1495       H  0.59349440  0.50966246  0.76662597     0.09600
H1496       H  0.64766296  0.03663275  0.78717720     0.13200
H1497       H  0.55239783  0.05270475  0.81677996     0.11900
H1498       H  0.58540004  0.08382263  0.85139718     0.13100
H1499       H  0.63844490  0.11018754  0.87424452     0.12100
H1500       H  0.69646801  0.06924421  0.80207249     0.09200
H1501       H  0.74856170  0.09803575  0.82525241     0.12500
H1502       H  0.69715832  0.12433413  0.87949180     0.14300
C1503       C  0.96993109  0.43246622  0.79377616    -0.01200
C1504       C  0.95296439  0.43098813  0.81528092    -0.09200
C1505       C  0.93846921  0.40196596  0.82942807    -0.18000
C1506       C  0.93998074  0.37290323  0.82226470     0.04400
C1507       C  0.95763848  0.37455645  0.80056622     0.18600
C1508       C  0.97345798  0.40453221  0.78710776    -0.19400
C1509       C  0.95855355  0.34601505  0.79207063    -0.20700
C1510       C  0.94156158  0.31556017  0.80438704    -0.19200
C1511       C  0.92412036  0.31315831  0.82590016     0.20000
C1512       C  0.92389395  0.34206120  0.83550441     0.02100
C1513       C  0.90757728  0.33881759  0.85795623    -0.14000
C1514       C  0.89148609  0.30803361  0.87001868    -0.11700
C1515       C  0.89060497  0.27930991  0.86006427     0.01600
C1516       C  0.90703274  0.28204647  0.83797546    -0.23900
H1517       H  0.94990324  0.45195050  0.82094382     0.09600
H1518       H  0.92519206  0.40275978  0.84540488     0.13200
H1519       H  0.48763312  0.40571053  0.77096261     0.11900
H1520       H  0.47181031  0.34703927  0.77546196     0.13100
H1521       H  0.94215801  0.29374810  0.79706930     0.12100
H1522       H  0.90719123  0.35967983  0.86687926     0.09200
H1523       H  0.87936496  0.30665727  0.88721922     0.12500
H1524       H  0.90717374  0.26010061  0.83044335     0.14300
O1525       O  0.82291987  0.72098337  0.94433637    -0.78400
C1526       C  0.90945613  0.70785818  0.95267969     0.82700
O1527       O  0.86189571  0.71920685  0.86200068    -0.79500
O1528       O  0.87946108  0.63044126  0.89610635    -0.81000
O1529       O  0.77808973  0.60243307  0.94231576    -0.80800
O1530       O  0.77430765  0.67248711  0.94348134    -0.79400
Zn1531     Zn  0.85565785  0.71439803  0.92325551     1.55700
O1532       O  0.82889154  0.60521444  0.94423993    -0.80800
Cd1533     Cd  0.78662416  0.64345171  0.92140221     1.59700
Cd1534     Cd  0.83703105  0.66939151  0.87411857     1.59600
O1535       O  0.75396565  0.62761060  0.89223883    -0.80800
O1536       O  0.83504760  0.66896820  0.91042442    -1.91300
Cd1537     Cd  0.85996921  0.64626690  0.92348230     1.59900
O1538       O  0.78736840  0.64292378  0.85954356    -0.80700
O1539       O  0.89932171  0.67770184  0.94590256    -0.79400
C1540       C  0.87388601  0.74710604  0.87344867     0.83100
C1541       C  0.79218203  0.70253752  0.95114715     0.82800
O1542       O  0.89550291  0.72451975  0.94485656    -0.78300
C1543       C  0.79757137  0.59153169  0.95016416     0.83600
O1544       O  0.87217556  0.74819483  0.89638399    -0.78400
C1545       C  0.75779472  0.62872041  0.86937671     0.83700
C1546       C  0.88003392  0.63301344  0.87319687     0.84100
O1547       O  0.86565001  0.64735454  0.86212157    -0.80900
O1548       O  0.89619978  0.72230257  0.58723886    -0.78400
C1549       C  0.79589154  0.70724400  0.57943513     0.82700
O1550       O  0.85329800  0.71628657  0.66987660    -0.79500
O1551       O  0.75006753  0.62587824  0.63234765    -0.81000
O1552       O  0.82708824  0.60193638  0.58808760    -0.80800
O1553       O  0.89841393  0.67454083  0.58801579    -0.79400
Zn1554     Zn  0.85679876  0.71453605  0.60866454     1.55700
O1555       O  0.77962609  0.60548286  0.58484059    -0.80800
Cd1556     Cd  0.85754631  0.64378714  0.60944633     1.59700
Cd1557     Cd  0.82962087  0.66723250  0.65642866     1.59600
O1558       O  0.87511175  0.62917746  0.63894376    -0.80800
O1559       O  0.83323667  0.66834941  0.62028986    -1.91300
Cd1560     Cd  0.78672496  0.64488358  0.60621022     1.59900
O1561       O  0.85331679  0.64147167  0.67122311    -0.80700
O1562       O  0.77768335  0.67626855  0.58472630    -0.79400
C1563       C  0.87046227  0.74474683  0.65944683     0.83100
C1564       C  0.90956627  0.70455862  0.58051756     0.82800
O1565       O  0.82586955  0.72491040  0.58800273    -0.78300
C1566       C  0.79720666  0.59140065  0.57952315     0.83600
O1567       O  0.87439106  0.74720258  0.63658578    -0.78400
C1568       C  0.87078667  0.62915557  0.66171220     0.83700
C1569       C  0.75079106  0.62789152  0.65526403     0.84100
O1570       O  0.77868881  0.64335775  0.66707560    -0.80900
C1571       C  0.50182512  0.99890702  0.78853504     0.45600
H1572       H  0.00400387  0.99955353  0.80852464    -0.03400
C1573       C  0.49688365  0.99731746  0.74162494     0.45600
H1574       H  0.49446293  0.99663061  0.72163607    -0.03400
C1575       C  0.53660199  0.51565710  0.77575677    -0.17100
C1576       C  0.98287625  0.96293663  0.77808796    -0.16900
C1577       C  0.98336332  0.51736938  0.77862150    -0.17300
C1578       C  0.53399167  0.51563962  0.75089385    -0.17200
C1579       C  0.98009423  0.96216667  0.75328765    -0.16800
C1580       C  0.97990079  0.51561825  0.75388741    -0.17100
O1581       O  0.67563480  0.78225241  0.44424841    -0.78400
C1582       C  0.59033928  0.79730898  0.45170331     0.82700
O1583       O  0.63996440  0.78797492  0.36099166    -0.79500
O1584       O  0.62189194  0.87508164  0.39569137    -0.81000
O1585       O  0.72332201  0.90203814  0.44254875    -0.80800
O1586       O  0.72364852  0.83125201  0.44527998    -0.79400
Zn1587     Zn  0.64421148  0.79018867  0.42251082     1.55700
O1588       O  0.67281979  0.89989008  0.44460509    -0.80800
Cd1589     Cd  0.71366560  0.86049791  0.42220425     1.59700
Cd1590     Cd  0.66574438  0.83734619  0.37413763     1.59600
O1591       O  0.74746907  0.87469584  0.39401749    -0.80800
O1592       O  0.66575193  0.83608720  0.41043358    -1.91300
Cd1593     Cd  0.64113648  0.85914889  0.42335438     1.59900
O1594       O  0.71564202  0.86103906  0.36061708    -0.80700
O1595       O  0.60141882  0.82779799  0.44544125    -0.79400
C1596       C  0.62851349  0.75968564  0.37180274     0.83100
C1597       C  0.70571818  0.80094827  0.45224781     0.82800
O1598       O  0.60361294  0.78012017  0.44357059    -0.78300
C1599       C  0.70416853  0.91317503  0.45056305     0.83600
O1600       O  0.62953072  0.75763501  0.39473180    -0.78400
C1601       C  0.74467503  0.87378154  0.37109575     0.83700
C1602       C  0.62501838  0.87599159  0.37279274     0.84100
O1603       O  0.64162046  0.86381530  0.36186563    -0.80900
O1604       O  0.60182376  0.78493855  0.08841978    -0.78400
C1605       C  0.70195697  0.79605425  0.07900045     0.82700
O1606       O  0.64459707  0.78722637  0.16920148    -0.79500
O1607       O  0.74941802  0.87650368  0.13505512    -0.81000
O1608       O  0.67704826  0.90277344  0.08652828    -0.80800
O1609       O  0.60230904  0.83402468  0.08869049    -0.79400
Zn1610     Zn  0.64183025  0.79104541  0.10811996     1.55700
O1611       O  0.72431657  0.89862538  0.08512077    -0.80800
Cd1612     Cd  0.64536257  0.86355851  0.10893426     1.59700
Cd1613     Cd  0.66801414  0.83643559  0.15655064     1.59600
O1614       O  0.63207438  0.88294213  0.13789570    -0.80800
O1615       O  0.66702433  0.83679364  0.12030820    -1.91300
Cd1616     Cd  0.71444922  0.85872075  0.10743078     1.59900
O1617       O  0.64294108  0.86122410  0.17074976    -0.80700
O1618       O  0.72232288  0.82572176  0.08646227    -0.79400
C1619       C  0.62827209  0.75907958  0.15822797     0.83100
C1620       C  0.58931525  0.80346772  0.08187247     0.82800
O1621       O  0.67094062  0.78030003  0.08587462    -0.78300
C1622       C  0.70707005  0.91263969  0.07859194     0.83600
O1623       O  0.62475697  0.75732430  0.13533630    -0.78400
C1624       C  0.63163802  0.87912905  0.16071546     0.83700
C1625       C  0.74702234  0.87471943  0.15798811     0.84100
O1626       O  0.71828661  0.86008855  0.16882594    -0.80900
C1627       C  0.50071732  0.50814424  0.28844162     0.45600
H1628       H  0.50096020  0.50938543  0.30845213    -0.03400
C1629       C  0.50162306  0.50643472  0.24145913     0.45600
H1630       H  0.50201784  0.50551209  0.22140997    -0.03400
C1631       C  0.51888129  0.98957635  0.27829541    -0.17100
C1632       C  0.96473098  0.99047600  0.27715356    -0.16900
C1633       C  0.51893421  0.54319536  0.27674090    -0.17300
C1634       C  0.51922537  0.98857720  0.25349810    -0.17200
C1635       C  0.96543342  0.98900120  0.25223566    -0.16800
C1636       C  0.51975444  0.54234392  0.25191081    -0.17100
C1637       C  0.53848154  0.57269794  0.23645592    -0.01200
C1638       C  0.57204127  0.59707249  0.24206158    -0.09200
C1639       C  0.58809109  0.62763798  0.22963424    -0.18000
C1640       C  0.57121255  0.63444813  0.21069101     0.04400
C1641       C  0.53830668  0.60841832  0.20376053     0.18600
C1642       C  0.52227707  0.57806097  0.21673938    -0.19400
C1643       C  0.52135395  0.61303276  0.18415307    -0.20700
C1644       C  0.53636168  0.64304095  0.17124879    -0.19200
C1645       C  0.56818790  0.66957953  0.17812922     0.20000
C1646       C  0.58579692  0.66597002  0.19827536     0.02100
C1647       C  0.61679626  0.69432973  0.20542610    -0.14000
C1648       C  0.63004677  0.72467408  0.19273254    -0.11700
C1649       C  0.61329289  0.72752628  0.17229148     0.01600
C1650       C  0.58237821  0.69988348  0.16508529    -0.23900
H1651       H  0.58558459  0.59283024  0.25664250     0.09600
H1652       H  0.61372315  0.64534823  0.23517474     0.13200
H1653       H  0.49666185  0.55911422  0.21199903     0.11900
H1654       H  0.49636254  0.59321765  0.17868173     0.13100
H1655       H  0.52270086  0.64571935  0.15601964     0.12100
H1656       H  0.63105933  0.69401612  0.22099312     0.09200
H1657       H  0.65390635  0.74583935  0.19864841     0.12500
H1658       H  0.56901755  0.70219785  0.14950370     0.14300
C1659       C  0.93502454  0.96931116  0.23675709    -0.01200
C1660       C  0.91118639  0.93601434  0.24260486    -0.09200
C1661       C  0.88033950  0.91910765  0.23009172    -0.18000
C1662       C  0.87301282  0.93474000  0.21068399     0.04400
C1663       C  0.89891410  0.96714995  0.20327615     0.18600
C1664       C  0.92934067  0.98418319  0.21649221    -0.19400
C1665       C  0.89409629  0.98257676  0.18294010    -0.20700
C1666       C  0.86390699  0.96654144  0.16982591    -0.19200
C1667       C  0.83730197  0.93538091  0.17735316     0.20000
C1668       C  0.84111802  0.91934816  0.19822839     0.02100
C1669       C  0.81252578  0.88915841  0.20609666    -0.14000
C1670       C  0.78172682  0.87513133  0.19336305    -0.11700
C1671       C  0.77878431  0.89029683  0.17220736     0.01600
C1672       C  0.80665484  0.92036035  0.16428251    -0.23900
H1673       H  0.91589332  0.92351616  0.25758096     0.09600
H1674       H  0.86285830  0.89380451  0.23587047     0.13200
H1675       H  0.94809711  0.50947725  0.21144031     0.11900
H1676       H  0.91389234  0.50712890  0.17706044     0.13100
H1677       H  0.86104381  0.97896533  0.15400646     0.12100
H1678       H  0.81298480  0.87626294  0.22230094     0.09200
H1679       H  0.76032292  0.85196289  0.19980865     0.12500
H1680       H  0.80419423  0.93248256  0.14812396     0.14300
C1681       C  0.61755417  0.89641292  0.17554125    -0.01200
C1682       C  0.62337521  0.92830415  0.16850237    -0.09200
C1683       C  0.60828806  0.94434156  0.18082653    -0.18000
C1684       C  0.58606258  0.92857538  0.20047595     0.04400
C1685       C  0.58035389  0.89619734  0.20770510     0.18600
C1686       C  0.59651987  0.88067178  0.19545907    -0.19400
C1687       C  0.55804195  0.87928680  0.22677877    -0.20700
C1688       C  0.54112842  0.89374130  0.23876985    -0.19200
C1689       C  0.54634683  0.92560841  0.23214256     0.20000
C1690       C  0.56903719  0.94360801  0.21298960     0.02100
C1691       C  0.57361977  0.97586208  0.20717711    -0.14000
C1692       C  0.55690606  0.98982275  0.22011642    -0.11700
C1693       C  0.53506299  0.97223598  0.23914922     0.01600
C1694       C  0.52920425  0.93976108  0.24470148    -0.23900
H1695       H  0.63967199  0.94092350  0.15319329     0.09600
H1696       H  0.61411496  0.96880492  0.17418397     0.13200
H1697       H  0.59165877  0.85578564  0.20079271     0.11900
H1698       H  0.55343935  0.85458530  0.23234988     0.13100
H1699       H  0.02394718  0.87995205  0.25341429     0.12100
H1700       H  0.59030144  0.99123218  0.19296862     0.09200
H1701       H  0.56172843  0.51493162  0.21556545     0.12500
H1702       H  0.01157429  0.92564805  0.25904750     0.14300
C1703       C  0.93295888  0.97572593  0.29228614    -0.01200
C1704       C  0.93258389  0.96173858  0.31487968    -0.09200
C1705       C  0.90256656  0.94474402  0.32818125    -0.18000
C1706       C  0.87134467  0.94076597  0.31923564     0.04400
C1707       C  0.87182980  0.95591904  0.29672250     0.18600
C1708       C  0.90268764  0.97448975  0.28413843    -0.19400
C1709       C  0.84142244  0.45186366  0.28667092    -0.20700
C1710       C  0.81047783  0.93313941  0.29859644    -0.19200
C1711       C  0.80927649  0.91871610  0.32116029     0.20000
C1712       C  0.83976505  0.92245650  0.33184985     0.02100
C1713       C  0.83739480  0.90812844  0.35488401    -0.14000
C1714       C  0.80637716  0.89177368  0.36706529    -0.11700
C1715       C  0.77645940  0.88851480  0.35668839     0.01600
C1716       C  0.77791321  0.90134544  0.33343507    -0.23900
H1717       H  0.95538220  0.96321158  0.32240148     0.09600
H1718       H  0.90463979  0.93433786  0.34515015     0.13200
H1719       H  0.90276298  0.48704543  0.26751934     0.11900
H1720       H  0.84152363  0.46295346  0.26932891     0.13100
H1721       H  0.78739195  0.93038568  0.29028956     0.12100
H1722       H  0.85912837  0.90975762  0.36430791     0.09200
H1723       H  0.80591469  0.88186032  0.38493361     0.12500
H1724       H  0.75491183  0.89910406  0.32532199     0.14300
C1725       C  0.61368327  0.72812860  0.35762801    -0.01200
C1726       C  0.61638498  0.70057736  0.36618681    -0.09200
C1727       C  0.60179719  0.67017926  0.35353804    -0.18000
C1728       C  0.58324782  0.66606276  0.33198946     0.04400
C1729       C  0.58006470  0.69395804  0.32357644     0.18600
C1730       C  0.59582600  0.72480382  0.33613170    -0.19400
C1731       C  0.56064268  0.69069541  0.30294791    -0.20700
C1732       C  0.54390986  0.66018057  0.29064424    -0.19200
C1733       C  0.54693995  0.63243318  0.29827364     0.20000
C1734       C  0.56722966  0.63513216  0.31875637     0.02100
C1735       C  0.57072289  0.60679364  0.32498703    -0.14000
C1736       C  0.55468168  0.57711412  0.31148005    -0.11700
C1737       C  0.53448205  0.57452056  0.29150906     0.01600
C1738       C  0.53009167  0.60205321  0.28533610    -0.23900
H1739       H  0.63005135  0.70258924  0.38278778     0.09600
H1740       H  0.60487204  0.65018474  0.36141458     0.13200
H1741       H  0.59323588  0.74591391  0.32960905     0.11900
H1742       H  0.55796430  0.71176370  0.29648006     0.13100
H1743       H  0.52875188  0.65836595  0.27489323     0.12100
H1744       H  0.58629544  0.60697548  0.33985066     0.09200
H1745       H  0.55872172  0.55627601  0.31638374     0.12500
H1746       H  0.51402907  0.60002342  0.27009135     0.14300
C1747       C  0.53481812  0.97479732  0.29406100    -0.01200
C1748       C  0.51478577  0.94975460  0.31059661    -0.09200
C1749       C  0.52852691  0.93345876  0.32417291    -0.18000
C1750       C  0.56289893  0.94129976  0.32117416     0.04400
C1751       C  0.58302340  0.96642239  0.30398918     0.18600
C1752       C  0.56911812  0.98345837  0.29109302    -0.19400
C1753       C  0.61656215  0.97370191  0.29930266    -0.20700
C1754       C  0.63043370  0.95615138  0.31105778    -0.19200
C1755       C  0.61148762  0.93166516  0.32836365     0.20000
C1756       C  0.57771652  0.92449123  0.33411505     0.02100
C1757       C  0.56041492  0.90111265  0.35279276    -0.14000
C1758       C  0.57590201  0.88537799  0.36504621    -0.11700
C1759       C  0.60867714  0.89173453  0.35878322     0.01600
C1760       C  0.62629782  0.91466915  0.34028866    -0.23900
H1761       H  0.48791481  0.94149423  0.31221077     0.09600
H1762       H  0.51118362  0.91387695  0.33610449     0.13200
H1763       H  0.58458052  0.00261966  0.27802020     0.11900
H1764       H  0.63195927  0.99265652  0.28610620     0.12900
H1765       H  0.65629757  0.96201308  0.30675502     0.12100
H1766       H  0.53525097  0.89508414  0.35880192     0.09200
H1767       H  0.56210857  0.86799658  0.37952173     0.12500
H1768       H  0.65203029  0.92019135  0.33581997     0.14300
C1769       C  0.78239785  0.56291959  0.56226234    -0.01200
C1770       C  0.74869334  0.55046608  0.55435568    -0.09200
C1771       C  0.73499029  0.52612054  0.53633987    -0.18000
C1772       C  0.75466561  0.51330027  0.52538047     0.04400
C1773       C  0.78838181  0.52483830  0.53412440     0.18600
C1774       C  0.80192144  0.54944674  0.55240697    -0.19400
C1775       C  0.80851617  0.01212414  0.52429206    -0.20700
C1776       C  0.79596895  0.98836827  0.50581008    -0.19200
C1777       C  0.76314280  0.97706694  0.49651077     0.20000
C1778       C  0.74207144  0.98951185  0.50605937     0.02100
C1779       C  0.70938837  0.97779724  0.49570945    -0.14000
C1780       C  0.69775181  0.95397670  0.47722031    -0.11700
C1781       C  0.71820284  0.94107705  0.46828568     0.01600
C1782       C  0.75111827  0.95312723  0.47781926    -0.23900
H1783       H  0.73277417  0.56000225  0.56183911     0.09600
H1784       H  0.70894905  0.51807627  0.53136038     0.13200
H1785       H  0.82795475  0.55871830  0.55848327     0.11900
H1786       H  0.83416471  0.02064236  0.53091629     0.13100
H1787       H  0.81214740  0.97892733  0.49862965     0.12100
H1788       H  0.69205982  0.48641427  0.50147404     0.09200
H1789       H  0.67228458  0.94522942  0.47016971     0.12500
H1790       H  0.76722109  0.94332376  0.47108119     0.14300
C1791       C  0.93785892  0.71856352  0.56285234    -0.01200
C1792       C  0.95364854  0.69987822  0.55588668    -0.09200
C1793       C  0.97847725  0.71156334  0.53787885    -0.18000
C1794       C  0.98832127  0.74249139  0.52604978     0.04400
C1795       C  0.97284729  0.76178245  0.53359664     0.18600
C1796       C  0.94794252  0.74974616  0.55180469    -0.19400
C1797       C  0.98206314  0.79283942  0.52277242    -0.20700
C1798       C  0.00640307  0.80523764  0.50455237    -0.19200
C1799       C  0.52186036  0.78672087  0.49654113     0.20000
C1800       C  0.51291020  0.75496767  0.50703710     0.02100
C1801       C  0.52885710  0.73704896  0.49793285    -0.14000
C1802       C  0.55313906  0.75043032  0.47958243    -0.11700
C1803       C  0.56244413  0.78206178  0.46966444     0.01600
C1804       C  0.54642674  0.79992841  0.47814125    -0.23900
H1805       H  0.94650263  0.67578087  0.56418194     0.09600
H1806       H  0.48933155  0.69567903  0.53360941     0.13200
H1807       H  0.93592746  0.76446769  0.55702894     0.11900
H1808       H  0.97038847  0.80767922  0.52845754     0.13100
H1809       H  0.01309635  0.82944726  0.49660441     0.12100
H1810       H  0.52324427  0.71265430  0.50460643     0.09200
H1811       H  0.56513002  0.73609278  0.47345034     0.12500
H1812       H  0.55334149  0.82442377  0.47059984     0.14300
C1813       C  0.78219080  0.72249878  0.56222477    -0.01200
C1814       C  0.79969433  0.75717316  0.55772315    -0.09200
C1815       C  0.78792766  0.77122229  0.54031840    -0.18000
C1816       C  0.75823902  0.75083035  0.52660604     0.04400
C1817       C  0.74033238  0.71571271  0.53150353     0.18600
C1818       C  0.75225882  0.70201239  0.54921924    -0.19400
C1819       C  0.71087093  0.69432307  0.51846661    -0.20700
C1820       C  0.69879451  0.70703905  0.50047868    -0.19200
C1821       C  0.71591104  0.74144055  0.49508187     0.20000
C1822       C  0.74585575  0.76388506  0.50807801     0.02100
C1823       C  0.76219396  0.79836786  0.50182722    -0.14000
C1824       C  0.74940516  0.80998073  0.48345985    -0.11700
C1825       C  0.71985398  0.78780549  0.47075995     0.01600
C1826       C  0.70319532  0.75353255  0.47671789    -0.23900
H1827       H  0.82282758  0.77356908  0.56754885     0.09600
H1828       H  0.80289491  0.79805882  0.53789490     0.13200
H1829       H  0.73853011  0.67508296  0.55245124     0.11900
H1830       H  0.69714786  0.66751456  0.52212798     0.13100
H1831       H  0.67596392  0.68981201  0.49065516     0.12100
H1832       H  0.78487553  0.81708952  0.51077035     0.09200
H1833       H  0.76256932  0.83667856  0.47944626     0.12500
H1834       H  0.68023124  0.73617311  0.46706405     0.14300
C1835       C  0.96182281  0.53014679  0.73993555    -0.01200
C1836       C  0.92942528  0.52429884  0.74704509    -0.09200
C1837       C  0.91378058  0.54050444  0.73546630    -0.18000
C1838       C  0.92999999  0.56290026  0.71606056     0.04400
C1839       C  0.96221434  0.56747561  0.70825991     0.18600
C1840       C  0.97773405  0.55119553  0.72021021    -0.19400
C1841       C  0.97890405  0.58844703  0.68864516    -0.20700
C1842       C  0.96409375  0.60459822  0.67628039    -0.19200
C1843       C  0.93254783  0.60077094  0.68352790     0.20000
C1844       C  0.91532464  0.58054586  0.70386938     0.02100
C1845       C  0.88431194  0.57905897  0.71105478    -0.14000
C1846       C  0.87045036  0.59587681  0.69795561    -0.11700
C1847       C  0.88674286  0.61419240  0.67717931     0.01600
C1848       C  0.91799395  0.61687919  0.67031373    -0.23900
H1849       H  0.91641189  0.50752808  0.76198192     0.09600
H1850       H  0.88896405  0.53488839  0.74202486     0.13200
H1851       H  0.00273852  0.55565858  0.71458737     0.11900
H1852       H  0.00345028  0.59209360  0.68263803     0.13100
H1853       H  0.97746285  0.62026155  0.66092183     0.12100
H1854       H  0.87021816  0.56513294  0.72669584     0.09200
H1855       H  0.84635404  0.59365129  0.70364607     0.12500
H1856       H  0.93104204  0.63156695  0.65448437     0.14300
C1857       C  0.56338615  0.53399711  0.73429177    -0.01200
C1858       C  0.56530076  0.51916884  0.71265657    -0.09200
C1859       C  0.59442620  0.53454388  0.69826202    -0.18000
C1860       C  0.62290613  0.56534679  0.70530848     0.04400
C1861       C  0.62007938  0.58112876  0.72668383     0.18600
C1862       C  0.59000557  0.56605622  0.74032223    -0.19400
C1863       C  0.64767763  0.61123861  0.73483261    -0.20700
C1864       C  0.67855457  0.62560764  0.72256149    -0.19200
C1865       C  0.68228776  0.61060703  0.70155629     0.20000
C1866       C  0.65427887  0.58067560  0.69227429     0.02100
C1867       C  0.65904471  0.56729168  0.67047561    -0.14000
C1868       C  0.69037903  0.58278467  0.65862235    -0.11700
C1869       C  0.71807257  0.61166807  0.66824566     0.01600
C1870       C  0.71392914  0.62544683  0.68972665    -0.23900
H1871       H  0.54470673  0.49512566  0.70706952     0.09600
H1872       H  0.59420534  0.52107706  0.68218935     0.13200
H1873       H  0.58796542  0.57865187  0.75635692     0.11900
H1874       H  0.64564746  0.62329706  0.75117081     0.13100
H1875       H  0.69970022  0.64857723  0.72958877     0.12100
H1876       H  0.63906326  0.54508726  0.66198490     0.09200
H1877       H  0.69307442  0.57186210  0.64191822     0.12500
H1878       H  0.73519166  0.64818279  0.69696588     0.14300
C1879       C  0.96172909  0.93080544  0.73871085    -0.01200
C1880       C  0.92854656  0.90610797  0.74479195    -0.09200
C1881       C  0.91267620  0.87521334  0.73264949    -0.18000
C1882       C  0.92933645  0.86841852  0.71351774     0.04400
C1883       C  0.96206119  0.89450095  0.70641766     0.18600
C1884       C  0.97803016  0.92499808  0.71925726    -0.19400
C1885       C  0.97874590  0.88997649  0.68659349    -0.20700
C1886       C  0.96339375  0.86016470  0.67340748    -0.19200
C1887       C  0.93163514  0.83362522  0.68034153     0.20000
C1888       C  0.91458483  0.83695766  0.70093738     0.02100
C1889       C  0.88386380  0.80845918  0.70824786    -0.14000
C1890       C  0.87011729  0.77835634  0.69512737    -0.11700
C1891       C  0.88608776  0.77590456  0.67410052     0.01600
C1892       C  0.91691831  0.80361917  0.66686892    -0.23900
H1893       H  0.91514904  0.91046183  0.75942232     0.09600
H1894       H  0.88723266  0.85733266  0.73840276     0.13200
H1895       H  0.50363452  0.94380236  0.71453672     0.11900
H1896       H  0.50367448  0.90980761  0.68105973     0.13100
H1897       H  0.97669386  0.85766476  0.65787997     0.12100
H1898       H  0.87019926  0.80852264  0.72423770     0.09200
H1899       H  0.84643835  0.75710954  0.70115860     0.12500
H1900       H  0.92978599  0.80161714  0.65088489     0.14300
C1901       C  0.93700625  0.72337499  0.97086140    -0.01200
C1902       C  0.94972804  0.75702095  0.97783260    -0.09200
C1903       C  0.97369445  0.77101370  0.99637530    -0.18000
C1904       C  0.98566240  0.75161101  0.00872344     0.04400
C1905       C  0.97310136  0.71765026  0.00126986     0.18600
C1906       C  0.94916824  0.70398604  0.98251133    -0.19400
C1907       C  0.98426520  0.69736010  0.01268819    -0.20700
C1908       C  0.00798962  0.71015775  0.03127483    -0.19200
C1909       C  0.52099022  0.74349551  0.03895491     0.20000
C1910       C  0.50978248  0.76466193  0.02803283     0.02100
C1911       C  0.52342281  0.79798318  0.03684205    -0.14000
C1912       C  0.54822556  0.81012045  0.05495247    -0.11700
C1913       C  0.56010834  0.78949229  0.06495604     0.01600
C1914       C  0.54573950  0.75596077  0.05721986    -0.23900
H1915       H  0.94082360  0.77260716  0.96911229     0.09600
H1916       H  0.48219572  0.79701843  0.00064828     0.13200
H1917       H  0.93946640  0.67788345  0.97733604     0.11900
H1918       H  0.97470580  0.67143510  0.00712060     0.13100
H1919       H  0.01638986  0.69390230  0.03960722     0.12100
H1920       H  0.51584404  0.81546300  0.02992022     0.09200
H1921       H  0.55875716  0.83608962  0.06067842     0.12500
H1922       H  0.55451877  0.73964101  0.06494429     0.14300
C1923       C  0.78402367  0.56329454  0.96755264    -0.01200
C1924       C  0.80434935  0.54956222  0.97527378    -0.09200
C1925       C  0.79309176  0.52516746  0.99335434    -0.18000
C1926       C  0.76099036  0.51377773  0.00451994     0.04400
C1927       C  0.74025172  0.52742046  0.99635171     0.18600
C1928       C  0.75175921  0.55168707  0.97796105    -0.19400
C1929       C  0.70833537  0.51718344  0.00683412    -0.20700
C1930       C  0.69644812  0.99357664  0.02532137    -0.19200
C1931       C  0.71615271  0.97956692  0.03373545     0.20000
C1932       C  0.74874857  0.98947642  0.02351129     0.02100
C1933       C  0.76758522  0.97454873  0.03272938    -0.14000
C1934       C  0.75431540  0.95037444  0.05093433    -0.11700
C1935       C  0.72193398  0.94024510  0.06066851     0.01600
C1936       C  0.70318621  0.95532032  0.05214961    -0.23900
H1937       H  0.82940804  0.55806289  0.96756550     0.09600
H1938       H  0.81033988  0.51608429  0.99833920     0.13200
H1939       H  0.73586383  0.56225100  0.97224568     0.11900
H1940       H  0.69246229  0.52757080  0.00072532     0.13100
H1941       H  0.67159408  0.98614290  0.03304512     0.12100
H1942       H  0.79251457  0.98069723  0.02613215     0.09200
H1943       H  0.76940541  0.93918673  0.05713836     0.12500
H1944       H  0.67809530  0.94772484  0.05952050     0.14300
C1945       C  0.77742826  0.71589419  0.96912855    -0.01200
C1946       C  0.74268665  0.69793211  0.97500343    -0.09200
C1947       C  0.72914627  0.70948322  0.99301240    -0.18000
C1948       C  0.75012228  0.73946073  0.00594437     0.04400
C1949       C  0.78532853  0.75762055  0.99981322     0.18600
C1950       C  0.79851232  0.74584389  0.98156563    -0.19400
C1951       C  0.80732004  0.78738912  0.01200690    -0.20700
C1952       C  0.79507366  0.79980859  0.03008881    -0.19200
C1953       C  0.76055332  0.78270861  0.03648108     0.20000
C1954       C  0.73754571  0.75215815  0.02466276     0.02100
C1955       C  0.70300136  0.73582478  0.03207423    -0.14000
C1956       C  0.69175414  0.74964471  0.05006645    -0.11700
C1957       C  0.71443094  0.78012146  0.06129045     0.01600
C1958       C  0.74889201  0.79628721  0.05451701    -0.23900
H1959       H  0.72582650  0.67466217  0.96572763     0.09600
H1960       H  0.70221849  0.69427898  0.99643497     0.13200
H1961       H  0.82551196  0.75982601  0.97736269     0.11900
H1962       H  0.83420046  0.80125522  0.00746663     0.13100
H1963       H  0.81273736  0.82305251  0.03908860     0.12100
H1964       H  0.68395719  0.71248380  0.02421305     0.09200
H1965       H  0.66497301  0.73662452  0.05488750     0.12500
H1966       H  0.76675230  0.81984442  0.06308412     0.14300
C1967       C  0.97378201  0.53809120  0.79421298    -0.01200
C1968       C  0.98135038  0.57061839  0.78717468    -0.09200
C1969       C  0.96844806  0.58832841  0.80004395    -0.18000
C1970       C  0.94827935  0.57428152  0.82087903     0.04400
C1971       C  0.94390050  0.54291199  0.82932003     0.18600
C1972       C  0.95640706  0.52513512  0.81588645    -0.19400
C1973       C  0.92634875  0.52901849  0.85083339    -0.20700
C1974       C  0.91226662  0.54526124  0.86391448    -0.19200
C1975       C  0.91440070  0.57514571  0.85534273     0.20000
C1976       C  0.93214120  0.59001080  0.83357662     0.02100
C1977       C  0.93175530  0.61915872  0.82503870    -0.14000
C1978       C  0.91441813  0.63285512  0.83766337    -0.11700
C1979       C  0.89772788  0.61843369  0.85936383     0.01600
C1980       C  0.89813838  0.58981482  0.86819357    -0.23900
H1981       H  0.99660347  0.58209294  0.77123393     0.09600
H1982       H  0.97472624  0.61291065  0.79332007     0.13200
H1983       H  0.95143258  0.00068331  0.82192374     0.11900
H1984       H  0.92332718  0.00533425  0.85752379     0.13100
H1985       H  0.89874621  0.53384341  0.88050167     0.12100
H1986       H  0.94382192  0.63136649  0.80836120     0.09200
H1987       H  0.91440697  0.65504183  0.83058813     0.12500
H1988       H  0.88484953  0.57830817  0.88485351     0.14300
C1989       C  0.56928855  0.53019841  0.78966805    -0.01200
C1990       C  0.59642554  0.52534930  0.78215860    -0.09200
C1991       C  0.62787527  0.54120632  0.79414659    -0.18000
C1992       C  0.63282511  0.56155145  0.81472468     0.04400
C1993       C  0.60437425  0.56421149  0.82332828     0.18600
C1994       C  0.57332474  0.54914142  0.81058716    -0.19400
C1995       C  0.60705427  0.58194639  0.84461327    -0.20700
C1996       C  0.63737758  0.59705493  0.85763934    -0.19200
C1997       C  0.66620407  0.59595126  0.84921966     0.20000
C1998       C  0.66468759  0.57889446  0.82734023     0.02100
C1999       C  0.69526647  0.58051991  0.81892598    -0.14000
C2000       C  0.72574474  0.59756926  0.83210352    -0.11700
C2001       C  0.72654507  0.61288737  0.85423953     0.01600
C2002       C  0.69664018  0.61203354  0.86257426    -0.23900
H2003       H  0.59349269  0.00966077  0.76662696     0.09600
H2004       H  0.64766636  0.53663869  0.78717415     0.13200
H2005       H  0.55239746  0.55270123  0.81678177     0.11900
H2006       H  0.58539969  0.58381803  0.85139927     0.13100
H2007       H  0.63844523  0.61018415  0.87424579     0.12100
H2008       H  0.69647214  0.56925560  0.80206707     0.09200
H2009       H  0.74856621  0.59804721  0.82524691     0.12500
H2010       H  0.69715962  0.62433339  0.87949158     0.14300
C2011       C  0.96993441  0.93246694  0.79377896    -0.01200
C2012       C  0.95296217  0.93098604  0.81528134    -0.09200
C2013       C  0.93846919  0.90196452  0.82942877    -0.18000
C2014       C  0.93998851  0.87290498  0.82226774     0.04400
C2015       C  0.95765118  0.87456079  0.80057121     0.18600
C2016       C  0.97346874  0.90453652  0.78711263    -0.19400
C2017       C  0.95857188  0.84602148  0.79207725    -0.20700
C2018       C  0.94157984  0.81556594  0.80439301    -0.19200
C2019       C  0.92413388  0.81316179  0.82590422     0.20000
C2020       C  0.92390316  0.84206307  0.83550737     0.02100
C2021       C  0.90758351  0.83881816  0.85795804    -0.14000
C2022       C  0.89149174  0.80803384  0.87001975    -0.11700
C2023       C  0.89061330  0.77931121  0.86006584     0.01600
C2024       C  0.90704548  0.78204936  0.83797872    -0.23900
H2025       H  0.94989411  0.95194598  0.82094162     0.09600
H2026       H  0.92518652  0.90275549  0.84540332     0.13200
H2027       H  0.48762940  0.90570988  0.77096184     0.11900
H2028       H  0.47180602  0.84703916  0.77546164     0.13100
H2029       H  0.94217998  0.79375524  0.79707626     0.12100
H2030       H  0.90719565  0.85967961  0.86688077     0.09200
H2031       H  0.87936771  0.80665635  0.88721925     0.12500
H2032       H  0.90718896  0.76010436  0.83044732     0.14300
loop_ 
_geom_bond_atom_site_label_1 
_geom_bond_atom_site_label_2 
_geom_bond_distance 
_geom_bond_site_symmetry_2 
_ccdc_geom_bond_type 
O1           C17   1.273       .  A
O1           Zn7   2.011       .  S
C2           O18   1.272       .  A
C2           O15   1.272       .  A
C2          C377   1.479       .  S
O3           C16   1.278       .  A
O3          Cd10   2.089       .  S
O4           C22   1.273       .  A
O4          Cd13   2.048       .  S
O5           C19   1.274       .  A
O5           Cd9   2.068       .  S
O6           C17   1.273       .  A
O6           Cd9   2.063       .  S
Zn7          O18   2.009       .  S
Zn7          O20   2.005       .  S
Zn7          O12   1.939       .  S
O8           C19   1.272       .  A
O8          Cd13   2.053       .  S
Cd9          O11   2.059       .  S
Cd9          O12   1.996       .  S
Cd10         O14   2.109       .  S
Cd10         O23   2.087       .  S
Cd10         O12   2.011       .  S
O11          C21   1.275       .  A
O12         Cd13   1.993       .  S
Cd13         O15   2.058       .  S
O14          C21   1.281       .  A
C16          O20   1.274       .  A
C16         C499   1.479       .  S
C17         C421   1.480       .  S
C19         C399   1.479       .  S
C21         C477   1.484       .  S
C22          O23   1.277       .  A
C22         C455   1.474       .  S
O24          C40   1.274       .  A
O24         Zn30   2.013       .  S
C25          O41   1.275       .  A
C25          O38   1.271       .  A
C25         C289   1.479       .  S
O26          C39   1.277       .  A
O26         Cd33   2.084       .  S
O27          C45   1.271       .  A
O27         Cd36   2.041       .  S
O28          C42   1.275       .  A
O28         Cd32   2.084       .  S
O29          C40   1.273       .  A
O29         Cd32   2.057       .  S
Zn30         O41   2.025       .  S
Zn30         O43   2.017       .  S
Zn30         O35   1.944       .  S
O31          C42   1.270       .  A
O31         Cd36   2.037       .  S
Cd32         O34   2.060       .  S
Cd32         O35   1.998       .  S
Cd33         O37   2.097       .  S
Cd33         O46   2.082       .  S
Cd33         O35   2.006       .  S
O34          C44   1.275       .  A
O35         Cd36   1.982       .  S
Cd36         O38   2.046       .  S
O37          C44   1.279       .  A
C39          O43   1.275       .  A
C39         C367   1.478       .  S
C40         C267   1.479       .  S
C42         C245   1.480       .  S
C44         C323   1.479       .  S
C45          O46   1.277       .  A
C45         C345   1.471       .  S
C47        H1064   1.110       .  S
C47        C1577   1.541   1_455  S
C47        C1068   1.541   1_455  S
C47         C559   1.536       .  S
H48        C1063   1.110       .  S
C49          H50   1.111       .  S
C49        C1071   1.539       .  S
C49         C562   1.542   1_655  S
C49        C1580   1.535       .  S
C51         C555   1.536   1_545  S
C51          C54   1.381       .  D
C51         C465   1.495       .  S
C52        C1063   1.541       .  S
C52          C55   1.377       .  D
C52         C487   1.493       .  S
C53        C1571   1.541   1_545  S
C53          C56   1.376       .  D
C53         C443   1.488       .  S
C54         C557   1.542   1_445  S
C54         C333   1.487       .  S
C55        C1065   1.539       .  S
C55         C355   1.488       .  S
C56        C1573   1.535   1_545  S
C56         C311   1.489       .  S
O57          C73   1.273       .  A
O57         Zn63   2.017       .  S
C58          O74   1.274       .  A
C58          O71   1.272       .  A
C58         C279   1.481       .  S
O59          C72   1.279       .  A
O59         Cd66   2.091       .  S
O60          C78   1.274       .  A
O60         Cd69   2.057       .  S
O61          C75   1.272       .  A
O61         Cd65   2.055       .  S
O62          C73   1.271       .  A
O62         Cd65   2.047       .  S
Zn63         O74   2.020       .  S
Zn63         O76   2.008       .  S
Zn63         O68   1.943       .  S
O64          C75   1.274       .  A
O64         Cd69   2.064       .  S
Cd65         O67   2.050       .  S
Cd65         O68   1.988       .  S
Cd66         O70   2.094       .  S
Cd66         O79   2.088       .  S
Cd66         O68   2.010       .  S
O67          C77   1.274       .  A
O68         Cd69   1.991       .  S
Cd69         O71   2.057       .  S
O70          C77   1.278       .  A
C72          O76   1.275       .  A
C72         C201   1.478       .  S
C73         C301   1.477       .  S
C75         C257   1.479       .  S
C77         C191   1.480       .  S
C78          O79   1.277       .  A
C78         C235   1.472       .  S
O80          C96   1.273       .  A
O80         Zn86   2.001       .  S
C81          O97   1.275       .  A
C81          O94   1.273       .  A
C81         C433   1.482       .  S
O82          C95   1.276       .  A
O82         Cd89   2.077       .  S
O83         C101   1.273       .  A
O83         Cd92   2.053       .  S
O84          C98   1.273       .  A
O84         Cd88   2.067       .  S
O85          C96   1.274       .  A
O85         Cd88   2.063       .  S
Zn86         O97   2.022       .  S
Zn86         O99   2.017       .  S
Zn86         O91   1.940       .  S
O87          C98   1.273       .  A
O87         Cd92   2.058       .  S
Cd88         O90   2.053       .  S
Cd88         O91   1.996       .  S
Cd89         O93   2.097       .  S
Cd89        O102   2.083       .  S
Cd89         O91   2.007       .  S
O90         C100   1.274       .  A
O91         Cd92   1.992       .  S
Cd92         O94   2.059       .  S
O93         C100   1.278       .  A
C95          O99   1.275       .  A
C95         C125   1.476       .  S
C96         C389   1.478       .  S
C98         C411   1.480       .  S
C100        C157   1.475       .  S
C101        O102   1.277       .  A
C101        C147   1.472       .  S
C103        H104   1.109       .  S
C103        C109   1.536       .  S
C103       C1632   1.542   1_445  S
C103        C615   1.538   1_545  S
C105        H106   1.111       .  S
C105        C112   1.538       .  S
C105       C1635   1.539   1_445  S
C105        C618   1.535   1_545  S
C107        C611   1.538       .  S
C107        C110   1.374       .  D
C107        C223   1.482       .  S
C108       C1627   1.542       .  S
C108        C111   1.382       .  D
C108        C179   1.502       .  S
C109        C112   1.376       .  D
C109        C213   1.487       .  S
C110        C613   1.535       .  S
C110        C169   1.485       .  S
C111       C1629   1.539       .  S
C111        C135   1.485       .  S
C112        C113   1.488       .  S
C113        C114   1.401       .  A
C113        C118   1.398       .  A
C114        C115   1.396       .  A
C114        H127   1.083       .  S
C115        C116   1.414       .  A
C115        H128   1.078       .  S
C116        C122   1.429       .  A
C116        C117   1.422       .  A
C117        C119   1.399       .  A
C117        C118   1.405       .  A
C118        H129   1.080   1_455  S
C119        C120   1.390       .  A
C119        H130   1.084   1_455  S
C120        C121   1.400       .  A
C120        H131   1.084       .  S
C121        C122   1.422       .  A
C121        C126   1.405       .  A
C122        C123   1.415       .  A
C123        C124   1.398       .  A
C123        H132   1.078       .  S
C124        C125   1.399       .  A
C124        H133   1.083       .  S
C125        C126   1.400       .  A
C126        H134   1.085       .  S
C135        C136   1.401       .  A
C135        C140   1.397       .  A
C136        C137   1.396       .  A
C136        H149   1.083       .  S
C137        C138   1.414       .  A
C137        H150   1.078       .  S
C138        C144   1.427       .  A
C138        C139   1.422       .  A
C139        C141   1.399       .  A
C139        C140   1.402       .  A
C140        H659   1.080       .  S
C141        C142   1.389       .  A
C141        H660   1.084       .  S
C142        C143   1.399       .  A
C142        H153   1.084       .  S
C143        C144   1.421       .  A
C143        C148   1.402       .  A
C144        C145   1.416       .  A
C145        C146   1.398       .  A
C145        H154   1.078       .  S
C146        C147   1.398       .  A
C146        H155   1.083       .  S
C147        C148   1.400       .  A
C148        H156   1.085       .  S
H151        C648   1.080   1_545  S
H152        C649   1.084   1_545  S
C157        C158   1.399       .  A
C157        C162   1.401       .  A
C158        C159   1.392       .  A
C158        H171   1.084       .  S
C159        C160   1.413       .  A
C159        H172   1.077       .  S
C160        C166   1.429       .  A
C160        C161   1.424       .  A
C161        C163   1.400       .  A
C161        C162   1.409       .  A
C162        H173   1.084       .  S
C163        C164   1.392       .  A
C163        H174   1.084       .  S
C164        C165   1.400       .  A
C164       H1191   1.084       .  S
C165        C166   1.421       .  A
C165        C170   1.405       .  A
C166        C167   1.416       .  A
C167        C168   1.394       .  A
C167        H176   1.076       .  S
C168        C169   1.396       .  A
C168        H685   1.084       .  S
C169        C170   1.403       .  A
C170       H1194   1.084       .  S
H175       C1180   1.084       .  S
H177        C676   1.084   1_545  S
H178       C1186   1.084       .  S
C179        C180   1.400       .  A
C179        C184   1.407       .  A
C180        C181   1.393       .  A
C180        H193   1.076       .  S
C181        C182   1.413       .  A
C181        H194   1.077       .  S
C182        C188   1.429       .  A
C182        C183   1.420       .  A
C183        C184   1.406       .  A
C183        C693   1.401       .  A
C184        H703   1.083       .  S
C185        C691   1.401       .  A
C185        C694   1.392       .  A
C185        H196   1.084       .  S
C186        C187   1.400       .  A
C186        C693   1.392       .  A
C186        H197   1.084       .  S
C187        C188   1.423       .  A
C187        C192   1.409       .  A
C188        C189   1.413       .  A
C189        C190   1.392       .  A
C189        H198   1.077       .  S
C190        C191   1.401       .  A
C190        H199   1.084       .  S
C191        C192   1.402       .  A
C192        H200   1.084       .  S
H195        C692   1.083       .  S
C201        C202   1.400       .  A
C201        C206   1.401       .  A
C202        C203   1.395       .  A
C202        H215   1.084       .  S
C203        C204   1.414       .  A
C203        H216   1.077       .  S
C204        C210   1.429       .  A
C204        C205   1.424       .  A
C205        C207   1.400       .  A
C205        C206   1.407       .  A
C206        H217   1.084       .  S
C207        C208   1.391       .  A
C207        H218   1.084       .  S
C208        C209   1.400       .  A
C208        H219   1.084       .  S
C209        C210   1.421       .  A
C209        C214   1.404       .  A
C210        C211   1.416       .  A
C211        C212   1.396       .  A
C211        H220   1.077       .  S
C212        C213   1.398       .  A
C212        H221   1.083       .  S
C213        C214   1.402       .  A
C214        H222   1.084       .  S
C223        C224   1.395       .  A
C223        C228   1.401       .  A
C224        C225   1.394       .  A
C224        H237   1.078   1_455  S
C225        C226   1.414       .  A
C225        H238   1.077       .  S
C226        C232   1.428       .  A
C226        C227   1.422       .  A
C227        C229   1.399       .  A
C227        C228   1.405       .  A
C228        H239   1.085       .  S
C229        C230   1.391       .  A
C229        H240   1.084       .  S
C230        C231   1.400       .  A
C230        H241   1.084       .  S
C231        C232   1.423       .  A
C231        C236   1.407       .  A
C232        C233   1.414       .  A
C233        C234   1.394       .  A
C233        H242   1.077       .  S
C234        C235   1.398       .  A
C234        H243   1.084       .  S
C235        C236   1.400       .  A
C236        H244   1.085       .  S
C245        C246   1.402       .  A
C245        C250   1.402       .  A
C246        C247   1.390       .  A
C246        H259   1.083       .  S
C247        C248   1.411       .  A
C247        H260   1.077       .  S
C248        C249   1.423       .  A
C248        C762   1.426   1_545  A
C249        C250   1.407       .  A
C249        C759   1.400       .  A
C250        H261   1.084       .  S
C251        C252   1.391       .  A
C251        C757   1.400       .  A
C251        H262   1.084       .  S
C252        C253   1.400       .  A
C252        H263   1.084       .  S
C253        C254   1.421       .  A
C253        C258   1.404       .  A
C254        C255   1.415       .  A
C254        C756   1.426       .  A
C255        C256   1.393       .  A
C255        H772   1.077       .  S
C256        C257   1.399       .  A
C256        H265   1.083       .  S
C257        C258   1.404       .  A
C258        H266   1.084       .  S
H264        C763   1.077       .  S
C267        C268   1.401       .  A
C267        C272   1.402       .  A
C268        C269   1.394       .  A
C268        H281   1.083       .  S
C269        C270   1.414       .  A
C269       H1298   1.077       .  S
C270        C271   1.422       .  A
C270       C1292   1.428       .  A
C271        C273   1.399       .  A
C271        C272   1.404       .  A
C272        H283   1.084       .  S
C273        C274   1.389       .  A
C273        H284   1.084       .  S
C274       C1291   1.400       .  A
C274        H285   1.084       .  S
C275        C276   1.422       .  A
C275        C280   1.404       .  A
C275       C1290   1.400       .  A
C276        C277   1.414       .  A
C276       C1286   1.428   1_455  A
C277        C278   1.395       .  A
C277        H286   1.077       .  S
C278        C279   1.401       .  A
C278        H287   1.083       .  S
C279        C280   1.403       .  A
C280        H288   1.084       .  S
H282       C1285   1.077       .  S
C289        C290   1.399       .  A
C289        C294   1.403       .  A
C290        C291   1.395       .  A
C290        H303   1.083       .  S
C291        C292   1.416       .  A
C291        H304   1.077       .  S
C292        C298   1.427       .  A
C292        C293   1.421       .  A
C293        C295   1.399       .  A
C293        C294   1.401       .  A
C294        H305   1.084       .  S
C295        C296   1.388       .  A
C295        H306   1.084       .  S
C296        C297   1.399       .  A
C296        H307   1.084       .  S
C297        C298   1.423       .  A
C297        C302   1.403       .  A
C298        C299   1.413       .  A
C299        C300   1.393       .  A
C299        H308   1.077       .  S
C300        C301   1.401       .  A
C300        H309   1.083       .  S
C301        C302   1.401       .  A
C302        H310   1.084       .  S
C311        C312   1.402       .  A
C311        C316   1.398       .  A
C312        C313   1.398       .  A
C312        H325   1.083       .  S
C313        C314   1.414       .  A
C313        H326   1.078       .  S
C314        C320   1.432       .  A
C314        C315   1.424       .  A
C315        C317   1.398       .  A
C315        C316   1.406       .  A
C316        H327   1.085       .  S
C317        C318   1.389       .  A
C317        H328   1.084       .  S
C318        C319   1.399       .  A
C318        H329   1.084       .  S
C319        C320   1.421       .  A
C319        C324   1.403       .  A
C320        C321   1.418       .  A
C321        C322   1.402       .  A
C321        H330   1.078       .  S
C322        C323   1.400       .  A
C322        H331   1.083       .  S
C323        C324   1.401       .  A
C324        H332   1.085       .  S
C333        C334   1.397       .  A
C333        C338   1.401       .  A
C334        C335   1.394       .  A
C334        H347   1.076   1_545  S
C335        C336   1.414       .  A
C335        H348   1.077       .  S
C336        C342   1.426       .  A
C336        C337   1.421       .  A
C337        C339   1.399       .  A
C337        C338   1.400       .  A
C338        H349   1.084       .  S
C339        C340   1.388       .  A
C339        H350   1.084       .  S
C340        C341   1.399       .  A
C340        H351   1.084       .  S
C341        C342   1.423       .  A
C341        C346   1.403       .  A
C342        C343   1.414       .  A
C343        C344   1.393       .  A
C343        H352   1.077       .  S
C344        C345   1.400       .  A
C344        H353   1.084       .  S
C345        C346   1.398       .  A
C346        H354   1.085       .  S
C355        C356   1.401       .  A
C355        C360   1.398       .  A
C356        C357   1.398       .  A
C356        H369   1.083       .  S
C357        C358   1.415       .  A
C357        H370   1.078       .  S
C358        C364   1.430       .  A
C358        C359   1.421       .  A
C359        C361   1.399       .  A
C359        C360   1.404       .  A
C360       H1387   1.078       .  S
C361        C362   1.390       .  A
C361       H1388   1.084       .  S
C362        C363   1.400       .  A
C362        H373   1.084       .  S
C363        C364   1.422       .  A
C363        C368   1.405       .  A
C364        C365   1.415       .  A
C365        C366   1.399       .  A
C365        H374   1.078       .  S
C366        C367   1.400       .  A
C366        H375   1.083       .  S
C367        C368   1.401       .  A
C368        H376   1.085       .  S
H371       C1376   1.078   1_455  S
H372       C1377   1.084   1_455  S
C377        C378   1.401       .  A
C377        C382   1.401       .  A
C378        C379   1.395       .  A
C378        H391   1.083       .  S
C379        C380   1.414   1_556  A
C379       H1408   1.077   1_556  S
C380        C381   1.422       .  A
C380       C1402   1.428       .  A
C381        C383   1.399       .  A
C381        C382   1.402   1_554  A
C382        H393   1.084       .  S
C383        C384   1.387       .  A
C383        H394   1.084       .  S
C384       C1401   1.399       .  A
C384        H395   1.084       .  S
C385        C386   1.421       .  A
C385        C390   1.401       .  A
C385       C1400   1.399       .  A
C386        C387   1.415       .  A
C386       C1396   1.428   1_455  A
C387        C388   1.396       .  A
C387        H396   1.077       .  S
C388        C389   1.401       .  A
C388        H397   1.083       .  S
C389        C390   1.401       .  A
C390        H398   1.084       .  S
H392       C1395   1.077   1_554  S
C399        C400   1.401       .  A
C399        C404   1.401       .  A
C400        C401   1.394       .  A
C400        H413   1.083       .  S
C401        C402   1.414   1_556  A
C401        H414   1.077       .  S
C402        C403   1.422   1_554  A
C402        C916   1.428   1_545  A
C403        C405   1.399   1_556  A
C403        C404   1.403       .  A
C404        H415   1.084       .  S
C405        C914   1.389   1_545  A
C405        H416   1.084       .  S
C406        C407   1.399       .  A
C406        C913   1.389       .  A
C406        H417   1.084       .  S
C407        C408   1.422       .  A
C407        C412   1.404       .  A
C408        C409   1.414       .  A
C408        C910   1.428       .  A
C409        C410   1.394       .  A
C409        H418   1.077       .  S
C410        C411   1.401       .  A
C410        H419   1.083       .  S
C411        C412   1.402       .  A
C412        H420   1.084       .  S
C421        C422   1.401       .  A
C421        C426   1.402       .  A
C422        C423   1.397       .  A
C422        H435   1.083       .  S
C423        C424   1.415   1_556  A
C423        H436   1.077       .  S
C424        C430   1.430       .  A
C424        C425   1.422   1_554  A
C425        C427   1.399   1_556  A
C425        C426   1.402       .  A
C426        H437   1.084       .  S
C427        C428   1.388       .  A
C427        H438   1.084       .  S
C428        C429   1.399       .  A
C428        H439   1.084       .  S
C429        C430   1.422       .  A
C429        C434   1.403       .  A
C430        C431   1.415       .  A
C431        C432   1.397       .  A
C431        H440   1.077       .  S
C432        C433   1.401       .  A
C432        H441   1.083       .  S
C433        C434   1.402       .  A
C434        H442   1.084       .  S
C443        C444   1.403       .  A
C443        C448   1.396       .  A
C444        C445   1.395       .  A
C444        H457   1.083       .  S
C445        C446   1.413       .  A
C445        H458   1.078       .  S
C446        C452   1.427       .  A
C446        C447   1.422       .  A
C447        C449   1.398       .  A
C447        C448   1.402       .  A
C448        H967   1.076       .  S
C449        C450   1.388       .  A
C449        H968   1.084       .  S
C450        C451   1.399       .  A
C450        H461   1.084       .  S
C451        C452   1.421       .  A
C451        C456   1.400       .  A
C452        C453   1.416       .  A
C453        C454   1.399       .  A
C453        H462   1.078       .  S
C454        C455   1.399       .  A
C454        H463   1.083       .  S
C455        C456   1.400       .  A
C456        H464   1.085       .  S
H459        C956   1.076       .  S
H460        C957   1.084       .  S
C465        C466   1.403       .  A
C465        C470   1.401       .  A
C466        C467   1.400       .  A
C466        H987   1.083       .  S
C467        C468   1.414       .  A
C467        H480   1.078       .  S
C468        C474   1.433       .  A
C468        C469   1.423       .  A
C469        C471   1.399       .  A
C469        C470   1.406       .  A
C470        H481   1.084       .  S
C471        C472   1.390       .  A
C471        H482   1.084       .  S
C472        C473   1.400       .  A
C472        H483   1.084       .  S
C473        C474   1.421       .  A
C473        C478   1.404       .  A
C474        C475   1.417       .  A
C475        C476   1.403       .  A
C475        H484   1.078       .  S
C476        C477   1.401       .  A
C476        H485   1.083       .  S
C477        C478   1.403       .  A
C478        H486   1.085       .  S
H479        C974   1.083       .  S
C487        C488   1.397       .  A
C487        C492   1.404       .  A
C488        C489   1.394       .  A
C488        H501   1.074       .  S
C489        C490   1.413       .  A
C489        H502   1.077       .  S
C490        C496   1.428       .  A
C490        C491   1.421       .  A
C491        C493   1.400       .  A
C491        C492   1.406       .  A
C492       H1519   1.083       .  S
C493        C494   1.392       .  A
C493       H1520   1.084       .  S
C494        C495   1.400       .  A
C494        H505   1.084       .  S
C495        C496   1.422       .  A
C495        C500   1.407       .  A
C496        C497   1.414       .  A
C497        C498   1.394       .  A
C497        H506   1.077       .  S
C498        C499   1.400       .  A
C498        H507   1.083       .  S
C499        C500   1.402       .  A
C500        H508   1.084       .  S
H503       C1508   1.083       .  S
H504       C1509   1.084       .  S
O509        C525   1.273       .  A
O509       Zn515   2.011       .  S
C510        O526   1.272       .  A
C510        O523   1.272       .  A
C510        C885   1.479       .  S
O511        C524   1.278       .  A
O511       Cd518   2.089       .  S
O512        C530   1.273       .  A
O512       Cd521   2.048       .  S
O513        C527   1.274       .  A
O513       Cd517   2.068       .  S
O514        C525   1.273       .  A
O514       Cd517   2.063       .  S
Zn515       O526   2.009       .  S
Zn515       O528   2.005       .  S
Zn515       O520   1.939       .  S
O516        C527   1.272       .  A
O516       Cd521   2.053       .  S
Cd517       O519   2.059       .  S
Cd517       O520   1.996       .  S
Cd518       O522   2.109       .  S
Cd518       O531   2.087       .  S
Cd518       O520   2.011       .  S
O519        C529   1.275       .  A
O520       Cd521   1.993       .  S
Cd521       O523   2.058       .  S
O522        C529   1.281       .  A
C524        O528   1.274       .  A
C524       C1007   1.479       .  S
C525        C929   1.480       .  S
C527        C907   1.479       .  S
C529        C985   1.484       .  S
C530        O531   1.277       .  A
C530        C963   1.474       .  S
O532        C548   1.274       .  A
O532       Zn538   2.013       .  S
C533        O549   1.275       .  A
C533        O546   1.271       .  A
C533        C797   1.479       .  S
O534        C547   1.277       .  A
O534       Cd541   2.084       .  S
O535        C553   1.271       .  A
O535       Cd544   2.041       .  S
O536        C550   1.275       .  A
O536       Cd540   2.084       .  S
O537        C548   1.273       .  A
O537       Cd540   2.057       .  S
Zn538       O549   2.025       .  S
Zn538       O551   2.017       .  S
Zn538       O543   1.944       .  S
O539        C550   1.270       .  A
O539       Cd544   2.037       .  S
Cd540       O542   2.060       .  S
Cd540       O543   1.998       .  S
Cd541       O545   2.097       .  S
Cd541       O554   2.082       .  S
Cd541       O543   2.006       .  S
O542        C552   1.275       .  A
O543       Cd544   1.982       .  S
Cd544       O546   2.046       .  S
O545        C552   1.279       .  A
C547        O551   1.275       .  A
C547        C875   1.478       .  S
C548        C775   1.479       .  S
C550        C753   1.480       .  S
C552        C831   1.479       .  S
C553        O554   1.277       .  A
C553        C853   1.471       .  S
C555       H1572   1.110       .  S
C555       C1069   1.541   1_465  S
C555       C1576   1.541   1_455  S
H556       C1571   1.110       .  S
C557        H558   1.111       .  S
C557       C1579   1.539       .  S
C557       C1072   1.535   1_565  S
C559        C562   1.381       .  D
C559        C973   1.495       .  S
C560       C1571   1.541       .  S
C560        C563   1.377       .  D
C560        C995   1.493       .  S
C561       C1063   1.541       .  S
C561        C564   1.376       .  D
C561        C951   1.488       .  S
C562        C841   1.487       .  S
C563       C1573   1.539       .  S
C563        C863   1.488       .  S
C564       C1065   1.535       .  S
C564        C819   1.489       .  S
O565        C581   1.273       .  A
O565       Zn571   2.017       .  S
C566        O582   1.274       .  A
C566        O579   1.272       .  A
C566        C787   1.481       .  S
O567        C580   1.279       .  A
O567       Cd574   2.091       .  S
O568        C586   1.274       .  A
O568       Cd577   2.057       .  S
O569        C583   1.272       .  A
O569       Cd573   2.055       .  S
O570        C581   1.271       .  A
O570       Cd573   2.047       .  S
Zn571       O582   2.020       .  S
Zn571       O584   2.008       .  S
Zn571       O576   1.943       .  S
O572        C583   1.274       .  A
O572       Cd577   2.064       .  S
Cd573       O575   2.050       .  S
Cd573       O576   1.988       .  S
Cd574       O578   2.094       .  S
Cd574       O587   2.088       .  S
Cd574       O576   2.010       .  S
O575        C585   1.274       .  A
O576       Cd577   1.991       .  S
Cd577       O579   2.057       .  S
O578        C585   1.278       .  A
C580        O584   1.275       .  A
C580        C709   1.478       .  S
C581        C809   1.477       .  S
C583        C765   1.479       .  S
C585        C699   1.480       .  S
C586        O587   1.277       .  A
C586        C743   1.472       .  S
O588        C604   1.273       .  A
O588       Zn594   2.001       .  S
C589        O605   1.275       .  A
C589        O602   1.273       .  A
C589        C941   1.482       .  S
O590        C603   1.276       .  A
O590       Cd597   2.077       .  S
O591        C609   1.273       .  A
O591       Cd600   2.053       .  S
O592        C606   1.273       .  A
O592       Cd596   2.067       .  S
O593        C604   1.274       .  A
O593       Cd596   2.063       .  S
Zn594       O605   2.022       .  S
Zn594       O607   2.017       .  S
Zn594       O599   1.940       .  S
O595        C606   1.273       .  A
O595       Cd600   2.058       .  S
Cd596       O598   2.053       .  S
Cd596       O599   1.996       .  S
Cd597       O601   2.097       .  S
Cd597       O610   2.083       .  S
Cd597       O599   2.007       .  S
O598        C608   1.274       .  A
O599       Cd600   1.992       .  S
Cd600       O602   2.059       .  S
O601        C608   1.278       .  A
C603        O607   1.275       .  A
C603        C633   1.476       .  S
C604        C897   1.478       .  S
C606        C919   1.480       .  S
C608        C665   1.475       .  S
C609        O610   1.277       .  A
C609        C655   1.472       .  S
C611        H612   1.109       .  S
C611        C617   1.536       .  S
C611       C1124   1.542   1_455  S
C613        H614   1.111       .  S
C613       C1127   1.539   1_455  S
C613        C620   1.538       .  S
C615        C618   1.374       .  D
C615        C731   1.482       .  S
C616       C1119   1.542   1_565  S
C616        C619   1.382       .  D
C616        C687   1.502       .  S
C617        C620   1.376       .  D
C617        C721   1.487       .  S
C618        C677   1.485       .  S
C619       C1121   1.539   1_565  S
C619        C643   1.485       .  S
C620        C621   1.488       .  S
C621        C622   1.401       .  A
C621        C626   1.398       .  A
C622        C623   1.396       .  A
C622        H635   1.083       .  S
C623        C624   1.414       .  A
C623        H636   1.078       .  S
C624        C630   1.429       .  A
C624        C625   1.422       .  A
C625        C627   1.399       .  A
C625        C626   1.405       .  A
C626        H637   1.080   1_455  S
C627        C628   1.390       .  A
C627        H638   1.084   1_455  S
C628        C629   1.400       .  A
C628        H639   1.084       .  S
C629        C630   1.422       .  A
C629        C634   1.405       .  A
C630        C631   1.415       .  A
C631        C632   1.398       .  A
C631        H640   1.078       .  S
C632        C633   1.399       .  A
C632        H641   1.083       .  S
C633        C634   1.400       .  A
C634        H642   1.085       .  S
C643        C644   1.401       .  A
C643        C648   1.397       .  A
C644        C645   1.396       .  A
C644        H657   1.083       .  S
C645        C646   1.414       .  A
C645        H658   1.078       .  S
C646        C652   1.427       .  A
C646        C647   1.422       .  A
C647        C649   1.399       .  A
C647        C648   1.402       .  A
C649        C650   1.389       .  A
C650        C651   1.399       .  A
C650        H661   1.084       .  S
C651        C652   1.421       .  A
C651        C656   1.402       .  A
C652        C653   1.416       .  A
C653        C654   1.398       .  A
C653        H662   1.078       .  S
C654        C655   1.398       .  A
C654        H663   1.083       .  S
C655        C656   1.400       .  A
C656        H664   1.085       .  S
C665        C666   1.399       .  A
C665        C670   1.401       .  A
C666        C667   1.392       .  A
C666        H679   1.084       .  S
C667        C668   1.413       .  A
C667        H680   1.077       .  S
C668        C674   1.429       .  A
C668        C669   1.424       .  A
C669        C671   1.400       .  A
C669        C670   1.409       .  A
C670        H681   1.084       .  S
C671        C672   1.392       .  A
C671        H682   1.084       .  S
C672        C673   1.400       .  A
C672       H1699   1.084       .  S
C673        C674   1.421       .  A
C673        C678   1.405       .  A
C674        C675   1.416       .  A
C675        C676   1.394       .  A
C675        H684   1.076       .  S
C676        C677   1.396       .  A
C677        C678   1.403       .  A
C678       H1702   1.084       .  S
H683       C1688   1.084       .  S
H686       C1694   1.084       .  S
C687        C688   1.400       .  A
C687        C692   1.407       .  A
C688        C689   1.393       .  A
C688        H701   1.076       .  S
C689        C690   1.413       .  A
C689        H702   1.077       .  S
C690        C696   1.429       .  A
C690        C691   1.420       .  A
C691        C692   1.406       .  A
C693        H704   1.084       .  S
C694        C695   1.400       .  A
C694        H705   1.084       .  S
C695        C696   1.423       .  A
C695        C700   1.409       .  A
C696        C697   1.413       .  A
C697        C698   1.392       .  A
C697        H706   1.077       .  S
C698        C699   1.401       .  A
C698        H707   1.084       .  S
C699        C700   1.402       .  A
C700        H708   1.084       .  S
C709        C710   1.400       .  A
C709        C714   1.401       .  A
C710        C711   1.395       .  A
C710        H723   1.084       .  S
C711        C712   1.414       .  A
C711        H724   1.077       .  S
C712        C718   1.429       .  A
C712        C713   1.424       .  A
C713        C715   1.400       .  A
C713        C714   1.407       .  A
C714        H725   1.084       .  S
C715        C716   1.391       .  A
C715        H726   1.084       .  S
C716        C717   1.400       .  A
C716        H727   1.084       .  S
C717        C718   1.421       .  A
C717        C722   1.404       .  A
C718        C719   1.416       .  A
C719        C720   1.396       .  A
C719        H728   1.077       .  S
C720        C721   1.398       .  A
C720        H729   1.083       .  S
C721        C722   1.402       .  A
C722        H730   1.084       .  S
C731        C732   1.395       .  A
C731        C736   1.401       .  A
C732        C733   1.394       .  A
C732        H745   1.078   1_455  S
C733        C734   1.414       .  A
C733        H746   1.077       .  S
C734        C740   1.428       .  A
C734        C735   1.422       .  A
C735        C737   1.399       .  A
C735        C736   1.405       .  A
C736        H747   1.085   1_565  S
C737        C738   1.391       .  A
C737        H748   1.084       .  S
C738        C739   1.400       .  A
C738        H749   1.084       .  S
C739        C740   1.423       .  A
C739        C744   1.407       .  A
C740        C741   1.414       .  A
C741        C742   1.394       .  A
C741        H750   1.077       .  S
C742        C743   1.398       .  A
C742        H751   1.084       .  S
C743        C744   1.400       .  A
C744        H752   1.085       .  S
C753        C754   1.402       .  A
C753        C758   1.402       .  A
C754        C755   1.390       .  A
C754        H767   1.083       .  S
C755        C756   1.411       .  A
C755        H768   1.077       .  S
C756        C757   1.423       .  A
C757        C758   1.407       .  A
C758        H769   1.084       .  S
C759        C760   1.391   1_545  A
C759        H770   1.084       .  S
C760        C761   1.400       .  A
C760        H771   1.084       .  S
C761        C762   1.421       .  A
C761        C766   1.404       .  A
C762        C763   1.415       .  A
C763        C764   1.393       .  A
C764        C765   1.399       .  A
C764        H773   1.083       .  S
C765        C766   1.404       .  A
C766        H774   1.084       .  S
C775        C776   1.401       .  A
C775        C780   1.402       .  A
C776        C777   1.394       .  A
C776        H789   1.083       .  S
C777        C778   1.414       .  A
C777       H1806   1.077       .  S
C778       C1800   1.428       .  A
C778        C779   1.422       .  A
C779        C781   1.399       .  A
C779        C780   1.404       .  A
C780        H791   1.084       .  S
C781        C782   1.389       .  A
C781        H792   1.084       .  S
C782       C1799   1.400       .  A
C782        H793   1.084       .  S
C783       C1798   1.400       .  A
C783        C784   1.422       .  A
C783        C788   1.404       .  A
C784       C1794   1.428   1_455  A
C784        C785   1.414       .  A
C785        C786   1.395       .  A
C785        H794   1.077       .  S
C786        C787   1.401       .  A
C786        H795   1.083       .  S
C787        C788   1.403       .  A
C788        H796   1.084       .  S
H790       C1793   1.077       .  S
C797        C798   1.399       .  A
C797        C802   1.403       .  A
C798        C799   1.395       .  A
C798        H811   1.083       .  S
C799        C800   1.416       .  A
C799        H812   1.077       .  S
C800        C806   1.427       .  A
C800        C801   1.421       .  A
C801        C803   1.399       .  A
C801        C802   1.401       .  A
C802        H813   1.084       .  S
C803        C804   1.388       .  A
C803        H814   1.084       .  S
C804        C805   1.399       .  A
C804        H815   1.084       .  S
C805        C806   1.423       .  A
C805        C810   1.403       .  A
C806        C807   1.413       .  A
C807        C808   1.393       .  A
C807        H816   1.077       .  S
C808        C809   1.401       .  A
C808        H817   1.083       .  S
C809        C810   1.401       .  A
C810        H818   1.084       .  S
C819        C820   1.402       .  A
C819        C824   1.398       .  A
C820        C821   1.398       .  A
C820        H833   1.083       .  S
C821        C822   1.414       .  A
C821        H834   1.078       .  S
C822        C828   1.432       .  A
C822        C823   1.424       .  A
C823        C825   1.398       .  A
C823        C824   1.406       .  A
C824        H835   1.085       .  S
C825        C826   1.389       .  A
C825        H836   1.084       .  S
C826        C827   1.399       .  A
C826        H837   1.084       .  S
C827        C828   1.421       .  A
C827        C832   1.403       .  A
C828        C829   1.418       .  A
C829        C830   1.402       .  A
C829        H838   1.078       .  S
C830        C831   1.400       .  A
C830        H839   1.083       .  S
C831        C832   1.401       .  A
C832        H840   1.085       .  S
C841        C842   1.397       .  A
C841        C846   1.401       .  A
C842        C843   1.394       .  A
C842        H855   1.076       .  S
C843        C844   1.414       .  A
C843        H856   1.077       .  S
C844        C850   1.426       .  A
C844        C845   1.421       .  A
C845        C847   1.399       .  A
C845        C846   1.400       .  A
C846        H857   1.084       .  S
C847        C848   1.388       .  A
C847        H858   1.084       .  S
C848        C849   1.399       .  A
C848        H859   1.084       .  S
C849        C850   1.423       .  A
C849        C854   1.403       .  A
C850        C851   1.414       .  A
C851        C852   1.393       .  A
C851        H860   1.077       .  S
C852        C853   1.400       .  A
C852        H861   1.084       .  S
C853        C854   1.398       .  A
C854        H862   1.085       .  S
C863        C864   1.401       .  A
C863        C868   1.398       .  A
C864        C865   1.398       .  A
C864        H877   1.083       .  S
C865        C866   1.415       .  A
C865        H878   1.078       .  S
C866        C872   1.430       .  A
C866        C867   1.421       .  A
C867        C869   1.399       .  A
C867        C868   1.404       .  A
C868       H1895   1.078       .  S
C869        C870   1.390       .  A
C869       H1896   1.084       .  S
C870        C871   1.400       .  A
C870        H881   1.084       .  S
C871        C872   1.422       .  A
C871        C876   1.405       .  A
C872        C873   1.415       .  A
C873        C874   1.399       .  A
C873        H882   1.078       .  S
C874        C875   1.400       .  A
C874        H883   1.083       .  S
C875        C876   1.401       .  A
C876        H884   1.085       .  S
H879       C1884   1.078   1_455  S
H880       C1885   1.084   1_455  S
C885        C886   1.401       .  A
C885        C890   1.401       .  A
C886        C887   1.395       .  A
C886        H899   1.083       .  S
C887        C888   1.414   1_556  A
C887       H1916   1.077   1_556  S
C888       C1910   1.428       .  A
C888        C889   1.422       .  A
C889        C891   1.399       .  A
C889        C890   1.402   1_554  A
C890        H901   1.084       .  S
C891        C892   1.387       .  A
C891        H902   1.084       .  S
C892       C1909   1.399       .  A
C892        H903   1.084       .  S
C893       C1908   1.399       .  A
C893        C894   1.421       .  A
C893        C898   1.401       .  A
C894       C1904   1.428   1_455  A
C894        C895   1.415       .  A
C895        C896   1.396       .  A
C895        H904   1.077       .  S
C896        C897   1.401       .  A
C896        H905   1.083       .  S
C897        C898   1.401       .  A
C898        H906   1.084       .  S
H900       C1903   1.077   1_554  S
C907        C908   1.401       .  A
C907        C912   1.401       .  A
C908        C909   1.394       .  A
C908        H921   1.083       .  S
C909        C910   1.414   1_556  A
C909        H922   1.077       .  S
C910        C911   1.422   1_554  A
C911        C913   1.399   1_556  A
C911        C912   1.403       .  A
C912        H923   1.084       .  S
C913        H924   1.084       .  S
C914        C915   1.399       .  A
C914        H925   1.084       .  S
C915        C916   1.422       .  A
C915        C920   1.404       .  A
C916        C917   1.414       .  A
C917        C918   1.394       .  A
C917        H926   1.077       .  S
C918        C919   1.401       .  A
C918        H927   1.083       .  S
C919        C920   1.402       .  A
C920        H928   1.084       .  S
C929        C930   1.401       .  A
C929        C934   1.402       .  A
C930        C931   1.397       .  A
C930        H943   1.083       .  S
C931        C932   1.415   1_556  A
C931        H944   1.077       .  S
C932        C938   1.430       .  A
C932        C933   1.422   1_554  A
C933        C935   1.399   1_556  A
C933        C934   1.402       .  A
C934        H945   1.084       .  S
C935        C936   1.388       .  A
C935        H946   1.084       .  S
C936        C937   1.399       .  A
C936        H947   1.084       .  S
C937        C938   1.422       .  A
C937        C942   1.403       .  A
C938        C939   1.415       .  A
C939        C940   1.397       .  A
C939        H948   1.077       .  S
C940        C941   1.401       .  A
C940        H949   1.083       .  S
C941        C942   1.402       .  A
C942        H950   1.084       .  S
C951        C952   1.403       .  A
C951        C956   1.396       .  A
C952        C953   1.395       .  A
C952        H965   1.083       .  S
C953        C954   1.413       .  A
C953        H966   1.078       .  S
C954        C960   1.427       .  A
C954        C955   1.422       .  A
C955        C957   1.398       .  A
C955        C956   1.402       .  A
C957        C958   1.388       .  A
C958        C959   1.399       .  A
C958        H969   1.084       .  S
C959        C960   1.421       .  A
C959        C964   1.400       .  A
C960        C961   1.416       .  A
C961        C962   1.399       .  A
C961        H970   1.078       .  S
C962        C963   1.399       .  A
C962        H971   1.083       .  S
C963        C964   1.400       .  A
C964        H972   1.085       .  S
C973        C974   1.403       .  A
C973        C978   1.401       .  A
C974        C975   1.400       .  A
C975        C976   1.414       .  A
C975        H988   1.078       .  S
C976        C982   1.433       .  A
C976        C977   1.423       .  A
C977        C979   1.399       .  A
C977        C978   1.406       .  A
C978        H989   1.084       .  S
C979        C980   1.390       .  A
C979        H990   1.084       .  S
C980        C981   1.400       .  A
C980        H991   1.084       .  S
C981        C982   1.421       .  A
C981        C986   1.404       .  A
C982        C983   1.417       .  A
C983        C984   1.403       .  A
C983        H992   1.078       .  S
C984        C985   1.401       .  A
C984        H993   1.083       .  S
C985        C986   1.403       .  A
C986        H994   1.085       .  S
C995        C996   1.397       .  A
C995       C1000   1.404       .  A
C996        C997   1.394       .  A
C996       H1009   1.074       .  S
C997        C998   1.413       .  A
C997       H1010   1.077       .  S
C998       C1004   1.428       .  A
C998        C999   1.421       .  A
C999       C1001   1.400       .  A
C999       C1000   1.406       .  A
C1000      H2027   1.083       .  S
C1001      C1002   1.392       .  A
C1001      H2028   1.084       .  S
C1002      C1003   1.400       .  A
C1002      H1013   1.084       .  S
C1003      C1004   1.422       .  A
C1003      C1008   1.407       .  A
C1004      C1005   1.414       .  A
C1005      C1006   1.394       .  A
C1005      H1014   1.077       .  S
C1006      C1007   1.400       .  A
C1006      H1015   1.083       .  S
C1007      C1008   1.402       .  A
C1008      H1016   1.084       .  S
H1011      C2016   1.083       .  S
H1012      C2017   1.084       .  S
O1017      C1033   1.273       .  A
O1017     Zn1023   2.011       .  S
C1018      O1034   1.272       .  A
C1018      O1031   1.272       .  A
C1018      C1393   1.479       .  S
O1019      C1032   1.278       .  A
O1019     Cd1026   2.089       .  S
O1020      C1038   1.273       .  A
O1020     Cd1029   2.048       .  S
O1021      C1035   1.274       .  A
O1021     Cd1025   2.068       .  S
O1022      C1033   1.273       .  A
O1022     Cd1025   2.063       .  S
Zn1023     O1034   2.009       .  S
Zn1023     O1036   2.005       .  S
Zn1023     O1028   1.939       .  S
O1024      C1035   1.272       .  A
O1024     Cd1029   2.053       .  S
Cd1025     O1027   2.059       .  S
Cd1025     O1028   1.996       .  S
Cd1026     O1030   2.109       .  S
Cd1026     O1039   2.087       .  S
Cd1026     O1028   2.011       .  S
O1027      C1037   1.275       .  A
O1028     Cd1029   1.993       .  S
Cd1029     O1031   2.058       .  S
O1030      C1037   1.281       .  A
C1032      O1036   1.274       .  A
C1032      C1515   1.479       .  S
C1033      C1437   1.480       .  S
C1035      C1415   1.479       .  S
C1037      C1493   1.484       .  S
C1038      O1039   1.277       .  A
C1038      C1471   1.474       .  S
O1040      C1056   1.274       .  A
O1040     Zn1046   2.013       .  S
C1041      O1057   1.275       .  A
C1041      O1054   1.271       .  A
C1041      C1305   1.479       .  S
O1042      C1055   1.277       .  A
O1042     Cd1049   2.084       .  S
O1043      C1061   1.271       .  A
O1043     Cd1052   2.041       .  S
O1044      C1058   1.275       .  A
O1044     Cd1048   2.084       .  S
O1045      C1056   1.273       .  A
O1045     Cd1048   2.057       .  S
Zn1046     O1057   2.025       .  S
Zn1046     O1059   2.017       .  S
Zn1046     O1051   1.944       .  S
O1047      C1058   1.270       .  A
O1047     Cd1052   2.037       .  S
Cd1048     O1050   2.060       .  S
Cd1048     O1051   1.998       .  S
Cd1049     O1053   2.097       .  S
Cd1049     O1062   2.082       .  S
Cd1049     O1051   2.006       .  S
O1050      C1060   1.275       .  A
O1051     Cd1052   1.982       .  S
Cd1052     O1054   2.046       .  S
O1053      C1060   1.279       .  A
C1055      O1059   1.275       .  A
C1055      C1383   1.478       .  S
C1056      C1283   1.479       .  S
C1058      C1261   1.480       .  S
C1060      C1339   1.479       .  S
C1061      O1062   1.277       .  A
C1061      C1361   1.471       .  S
C1063      C1575   1.536       .  S
C1065      H1066   1.111       .  S
C1065      C1578   1.542       .  S
C1067      C1571   1.536   1_545  S
C1067      C1070   1.381       .  D
C1067      C1481   1.495       .  S
C1068      C1071   1.377       .  D
C1068      C1503   1.493       .  S
C1069      C1072   1.376       .  D
C1069      C1459   1.488       .  S
C1070      C1573   1.542   1_545  S
C1070      C1349   1.487       .  S
C1071      C1371   1.488       .  S
C1072      C1327   1.489       .  S
O1073      C1089   1.273       .  A
O1073     Zn1079   2.017       .  S
C1074      O1090   1.274       .  A
C1074      O1087   1.272       .  A
C1074      C1295   1.481       .  S
O1075      C1088   1.279       .  A
O1075     Cd1082   2.091       .  S
O1076      C1094   1.274       .  A
O1076     Cd1085   2.057       .  S
O1077      C1091   1.272       .  A
O1077     Cd1081   2.055       .  S
O1078      C1089   1.271       .  A
O1078     Cd1081   2.047       .  S
Zn1079     O1090   2.020       .  S
Zn1079     O1092   2.008       .  S
Zn1079     O1084   1.943       .  S
O1080      C1091   1.274       .  A
O1080     Cd1085   2.064       .  S
Cd1081     O1083   2.050       .  S
Cd1081     O1084   1.988       .  S
Cd1082     O1086   2.094       .  S
Cd1082     O1095   2.088       .  S
Cd1082     O1084   2.010       .  S
O1083      C1093   1.274       .  A
O1084     Cd1085   1.991       .  S
Cd1085     O1087   2.057       .  S
O1086      C1093   1.278       .  A
C1088      O1092   1.275       .  A
C1088      C1217   1.478       .  S
C1089      C1317   1.477       .  S
C1091      C1273   1.479       .  S
C1093      C1207   1.480       .  S
C1094      O1095   1.277       .  A
C1094      C1251   1.472       .  S
O1096      C1112   1.273       .  A
O1096     Zn1102   2.001       .  S
C1097      O1113   1.275       .  A
C1097      O1110   1.273       .  A
C1097      C1449   1.482       .  S
O1098      C1111   1.276       .  A
O1098     Cd1105   2.077       .  S
O1099      C1117   1.273       .  A
O1099     Cd1108   2.053       .  S
O1100      C1114   1.273       .  A
O1100     Cd1104   2.067       .  S
O1101      C1112   1.274       .  A
O1101     Cd1104   2.063       .  S
Zn1102     O1113   2.022       .  S
Zn1102     O1115   2.017       .  S
Zn1102     O1107   1.940       .  S
O1103      C1114   1.273       .  A
O1103     Cd1108   2.058       .  S
Cd1104     O1106   2.053       .  S
Cd1104     O1107   1.996       .  S
Cd1105     O1109   2.097       .  S
Cd1105     O1118   2.083       .  S
Cd1105     O1107   2.007       .  S
O1106      C1116   1.274       .  A
O1107     Cd1108   1.992       .  S
Cd1108     O1110   2.059       .  S
O1109      C1116   1.278       .  A
C1111      O1115   1.275       .  A
C1111      C1141   1.476       .  S
C1112      C1405   1.478       .  S
C1114      C1427   1.480       .  S
C1116      C1173   1.475       .  S
C1117      O1118   1.277       .  A
C1117      C1163   1.472       .  S
C1119      H1120   1.109       .  S
C1119      C1125   1.536       .  S
C1119      C1631   1.538   1_545  S
C1121      H1122   1.111       .  S
C1121      C1634   1.535   1_545  S
C1121      C1128   1.538       .  S
C1123      C1627   1.538       .  S
C1123      C1126   1.374       .  D
C1123      C1239   1.482       .  S
C1124      C1127   1.382       .  D
C1124      C1195   1.502       .  S
C1125      C1128   1.376       .  D
C1125      C1229   1.487       .  S
C1126      C1629   1.535       .  S
C1126      C1185   1.485       .  S
C1127      C1151   1.485       .  S
C1128      C1129   1.488       .  S
C1129      C1130   1.401       .  A
C1129      C1134   1.398       .  A
C1130      C1131   1.396       .  A
C1130      H1143   1.083       .  S
C1131      C1132   1.414       .  A
C1131      H1144   1.078       .  S
C1132      C1138   1.429       .  A
C1132      C1133   1.422       .  A
C1133      C1135   1.399       .  A
C1133      C1134   1.405       .  A
C1134      H1145   1.080       .  S
C1135      C1136   1.390       .  A
C1135      H1146   1.084       .  S
C1136      C1137   1.400       .  A
C1136      H1147   1.084       .  S
C1137      C1138   1.422       .  A
C1137      C1142   1.405       .  A
C1138      C1139   1.415       .  A
C1139      C1140   1.398       .  A
C1139      H1148   1.078       .  S
C1140      C1141   1.399       .  A
C1140      H1149   1.083       .  S
C1141      C1142   1.400       .  A
C1142      H1150   1.085       .  S
C1151      C1152   1.401       .  A
C1151      C1156   1.397       .  A
C1152      C1153   1.396       .  A
C1152      H1165   1.083       .  S
C1153      C1154   1.414       .  A
C1153      H1166   1.078       .  S
C1154      C1160   1.427       .  A
C1154      C1155   1.422       .  A
C1155      C1157   1.399       .  A
C1155      C1156   1.402       .  A
C1156      H1675   1.080       .  S
C1157      C1158   1.389       .  A
C1157      H1676   1.084       .  S
C1158      C1159   1.399       .  A
C1158      H1169   1.084       .  S
C1159      C1160   1.421       .  A
C1159      C1164   1.402       .  A
C1160      C1161   1.416       .  A
C1161      C1162   1.398       .  A
C1161      H1170   1.078       .  S
C1162      C1163   1.398       .  A
C1162      H1171   1.083       .  S
C1163      C1164   1.400       .  A
C1164      H1172   1.085       .  S
H1167      C1664   1.080   1_545  S
H1168      C1665   1.084   1_545  S
C1173      C1174   1.399       .  A
C1173      C1178   1.401       .  A
C1174      C1175   1.392       .  A
C1174      H1187   1.084       .  S
C1175      C1176   1.413       .  A
C1175      H1188   1.077       .  S
C1176      C1182   1.429       .  A
C1176      C1177   1.424       .  A
C1177      C1179   1.400       .  A
C1177      C1178   1.409       .  A
C1178      H1189   1.084       .  S
C1179      C1180   1.392       .  A
C1179      H1190   1.084       .  S
C1180      C1181   1.400       .  A
C1181      C1182   1.421       .  A
C1181      C1186   1.405       .  A
C1182      C1183   1.416       .  A
C1183      C1184   1.394       .  A
C1183      H1192   1.076       .  S
C1184      C1185   1.396       .  A
C1184      H1701   1.084       .  S
C1185      C1186   1.403       .  A
H1193      C1692   1.084   1_545  S
C1195      C1196   1.400       .  A
C1195      C1200   1.407       .  A
C1196      C1197   1.393       .  A
C1196      H1209   1.076       .  S
C1197      C1198   1.413       .  A
C1197      H1210   1.077       .  S
C1198      C1204   1.429       .  A
C1198      C1199   1.420       .  A
C1199      C1709   1.401       .  A
C1199      C1200   1.406       .  A
C1200      H1719   1.083       .  S
C1201      C1707   1.401       .  A
C1201      C1710   1.392       .  A
C1201      H1212   1.084       .  S
C1202      C1709   1.392       .  A
C1202      C1203   1.400       .  A
C1202      H1213   1.084       .  S
C1203      C1204   1.423       .  A
C1203      C1208   1.409       .  A
C1204      C1205   1.413       .  A
C1205      C1206   1.392       .  A
C1205      H1214   1.077       .  S
C1206      C1207   1.401       .  A
C1206      H1215   1.084       .  S
C1207      C1208   1.402       .  A
C1208      H1216   1.084       .  S
H1211      C1708   1.083       .  S
C1217      C1218   1.400       .  A
C1217      C1222   1.401       .  A
C1218      C1219   1.395       .  A
C1218      H1231   1.084       .  S
C1219      C1220   1.414       .  A
C1219      H1232   1.077       .  S
C1220      C1226   1.429       .  A
C1220      C1221   1.424       .  A
C1221      C1223   1.400       .  A
C1221      C1222   1.407       .  A
C1222      H1233   1.084       .  S
C1223      C1224   1.391       .  A
C1223      H1234   1.084       .  S
C1224      C1225   1.400       .  A
C1224      H1235   1.084       .  S
C1225      C1226   1.421       .  A
C1225      C1230   1.404       .  A
C1226      C1227   1.416       .  A
C1227      C1228   1.396       .  A
C1227      H1236   1.077       .  S
C1228      C1229   1.398       .  A
C1228      H1237   1.083       .  S
C1229      C1230   1.402       .  A
C1230      H1238   1.084       .  S
C1239      C1240   1.395       .  A
C1239      C1244   1.401       .  A
C1240      C1241   1.394       .  A
C1240      H1253   1.078       .  S
C1241      C1242   1.414       .  A
C1241      H1254   1.077       .  S
C1242      C1248   1.428       .  A
C1242      C1243   1.422       .  A
C1243      C1245   1.399       .  A
C1243      C1244   1.405       .  A
C1244      H1255   1.085       .  S
C1245      C1246   1.391       .  A
C1245      H1256   1.084       .  S
C1246      C1247   1.400       .  A
C1246      H1257   1.084       .  S
C1247      C1248   1.423       .  A
C1247      C1252   1.407       .  A
C1248      C1249   1.414       .  A
C1249      C1250   1.394       .  A
C1249      H1258   1.077       .  S
C1250      C1251   1.398       .  A
C1250      H1259   1.084       .  S
C1251      C1252   1.400       .  A
C1252      H1260   1.085       .  S
C1261      C1262   1.402       .  A
C1261      C1266   1.402       .  A
C1262      C1263   1.390       .  A
C1262      H1275   1.083       .  S
C1263      C1264   1.411       .  A
C1263      H1276   1.077       .  S
C1264      C1778   1.426   1_545  A
C1264      C1265   1.423       .  A
C1265      C1775   1.400       .  A
C1265      C1266   1.407       .  A
C1266      H1277   1.084       .  S
C1267      C1773   1.400       .  A
C1267      C1268   1.391       .  A
C1267      H1278   1.084       .  S
C1268      C1269   1.400       .  A
C1268      H1279   1.084       .  S
C1269      C1270   1.421       .  A
C1269      C1274   1.404       .  A
C1270      C1772   1.426       .  A
C1270      C1271   1.415       .  A
C1271      C1272   1.393       .  A
C1271      H1788   1.077       .  S
C1272      C1273   1.399       .  A
C1272      H1281   1.083       .  S
C1273      C1274   1.404       .  A
C1274      H1282   1.084       .  S
H1280      C1779   1.077       .  S
C1283      C1284   1.401       .  A
C1283      C1288   1.402       .  A
C1284      C1285   1.394       .  A
C1284      H1297   1.083       .  S
C1285      C1286   1.414       .  A
C1286      C1287   1.422       .  A
C1287      C1289   1.399       .  A
C1287      C1288   1.404       .  A
C1288      H1299   1.084       .  S
C1289      C1290   1.389   1_655  A
C1289      H1300   1.084       .  S
C1290      H1301   1.084       .  S
C1291      C1292   1.422       .  A
C1291      C1296   1.404       .  A
C1292      C1293   1.414       .  A
C1293      C1294   1.395       .  A
C1293      H1302   1.077       .  S
C1294      C1295   1.401       .  A
C1294      H1303   1.083       .  S
C1295      C1296   1.403       .  A
C1296      H1304   1.084       .  S
C1305      C1306   1.399       .  A
C1305      C1310   1.403       .  A
C1306      C1307   1.395       .  A
C1306      H1319   1.083       .  S
C1307      C1308   1.416       .  A
C1307      H1320   1.077       .  S
C1308      C1314   1.427       .  A
C1308      C1309   1.421       .  A
C1309      C1311   1.399       .  A
C1309      C1310   1.401       .  A
C1310      H1321   1.084       .  S
C1311      C1312   1.388       .  A
C1311      H1322   1.084       .  S
C1312      C1313   1.399       .  A
C1312      H1323   1.084       .  S
C1313      C1314   1.423       .  A
C1313      C1318   1.403       .  A
C1314      C1315   1.413       .  A
C1315      C1316   1.393       .  A
C1315      H1324   1.077       .  S
C1316      C1317   1.401       .  A
C1316      H1325   1.083       .  S
C1317      C1318   1.401       .  A
C1318      H1326   1.084       .  S
C1327      C1328   1.402       .  A
C1327      C1332   1.398       .  A
C1328      C1329   1.398       .  A
C1328      H1341   1.083       .  S
C1329      C1330   1.414       .  A
C1329      H1342   1.078       .  S
C1330      C1336   1.432       .  A
C1330      C1331   1.424       .  A
C1331      C1333   1.398       .  A
C1331      C1332   1.406       .  A
C1332      H1343   1.085   1_655  S
C1333      C1334   1.389       .  A
C1333      H1344   1.084   1_655  S
C1334      C1335   1.399       .  A
C1334      H1345   1.084       .  S
C1335      C1336   1.421       .  A
C1335      C1340   1.403       .  A
C1336      C1337   1.418       .  A
C1337      C1338   1.402       .  A
C1337      H1346   1.078       .  S
C1338      C1339   1.400       .  A
C1338      H1347   1.083       .  S
C1339      C1340   1.401       .  A
C1340      H1348   1.085       .  S
C1349      C1350   1.397       .  A
C1349      C1354   1.401       .  A
C1350      C1351   1.394       .  A
C1350      H1363   1.076   1_545  S
C1351      C1352   1.414       .  A
C1351      H1364   1.077       .  S
C1352      C1358   1.426       .  A
C1352      C1353   1.421       .  A
C1353      C1355   1.399       .  A
C1353      C1354   1.400       .  A
C1354      H1365   1.084       .  S
C1355      C1356   1.388       .  A
C1355      H1366   1.084       .  S
C1356      C1357   1.399       .  A
C1356      H1367   1.084       .  S
C1357      C1358   1.423       .  A
C1357      C1362   1.403       .  A
C1358      C1359   1.414       .  A
C1359      C1360   1.393       .  A
C1359      H1368   1.077       .  S
C1360      C1361   1.400       .  A
C1360      H1369   1.084       .  S
C1361      C1362   1.398       .  A
C1362      H1370   1.085       .  S
C1371      C1372   1.401       .  A
C1371      C1376   1.398       .  A
C1372      C1373   1.398       .  A
C1372      H1385   1.083       .  S
C1373      C1374   1.415       .  A
C1373      H1386   1.078       .  S
C1374      C1380   1.430       .  A
C1374      C1375   1.421       .  A
C1375      C1377   1.399       .  A
C1375      C1376   1.404       .  A
C1377      C1378   1.390       .  A
C1378      C1379   1.400       .  A
C1378      H1389   1.084       .  S
C1379      C1380   1.422       .  A
C1379      C1384   1.405       .  A
C1380      C1381   1.415       .  A
C1381      C1382   1.399       .  A
C1381      H1390   1.078       .  S
C1382      C1383   1.400       .  A
C1382      H1391   1.083       .  S
C1383      C1384   1.401       .  A
C1384      H1392   1.085       .  S
C1393      C1394   1.401       .  A
C1393      C1398   1.401       .  A
C1394      C1395   1.395       .  A
C1394      H1407   1.083       .  S
C1395      C1396   1.414   1_556  A
C1396      C1397   1.422       .  A
C1397      C1399   1.399       .  A
C1397      C1398   1.402   1_554  A
C1398      H1409   1.084       .  S
C1399      C1400   1.387   1_655  A
C1399      H1410   1.084       .  S
C1400      H1411   1.084       .  S
C1401      C1402   1.421       .  A
C1401      C1406   1.401       .  A
C1402      C1403   1.415       .  A
C1403      C1404   1.396       .  A
C1403      H1412   1.077       .  S
C1404      C1405   1.401       .  A
C1404      H1413   1.083       .  S
C1405      C1406   1.401       .  A
C1406      H1414   1.084       .  S
C1415      C1416   1.401       .  A
C1415      C1420   1.401       .  A
C1416      C1417   1.394       .  A
C1416      H1429   1.083       .  S
C1417      C1418   1.414   1_556  A
C1417      H1430   1.077       .  S
C1418      C1932   1.428   1_545  A
C1418      C1419   1.422   1_554  A
C1419      C1421   1.399   1_556  A
C1419      C1420   1.403       .  A
C1420      H1431   1.084       .  S
C1421      C1930   1.389   1_545  A
C1421      H1432   1.084       .  S
C1422      C1929   1.389       .  A
C1422      C1423   1.399       .  A
C1422      H1433   1.084       .  S
C1423      C1424   1.422       .  A
C1423      C1428   1.404       .  A
C1424      C1926   1.428       .  A
C1424      C1425   1.414       .  A
C1425      C1426   1.394       .  A
C1425      H1434   1.077       .  S
C1426      C1427   1.401       .  A
C1426      H1435   1.083       .  S
C1427      C1428   1.402       .  A
C1428      H1436   1.084       .  S
C1437      C1438   1.401       .  A
C1437      C1442   1.402       .  A
C1438      C1439   1.397       .  A
C1438      H1451   1.083       .  S
C1439      C1440   1.415   1_556  A
C1439      H1452   1.077       .  S
C1440      C1446   1.430       .  A
C1440      C1441   1.422   1_554  A
C1441      C1443   1.399   1_556  A
C1441      C1442   1.402       .  A
C1442      H1453   1.084       .  S
C1443      C1444   1.388       .  A
C1443      H1454   1.084       .  S
C1444      C1445   1.399       .  A
C1444      H1455   1.084       .  S
C1445      C1446   1.422       .  A
C1445      C1450   1.403       .  A
C1446      C1447   1.415       .  A
C1447      C1448   1.397       .  A
C1447      H1456   1.077       .  S
C1448      C1449   1.401       .  A
C1448      H1457   1.083       .  S
C1449      C1450   1.402       .  A
C1450      H1458   1.084       .  S
C1459      C1460   1.403       .  A
C1459      C1464   1.396       .  A
C1460      C1461   1.395       .  A
C1460      H1473   1.083       .  S
C1461      C1462   1.413       .  A
C1461      H1474   1.078       .  S
C1462      C1468   1.427       .  A
C1462      C1463   1.422       .  A
C1463      C1465   1.398       .  A
C1463      C1464   1.402       .  A
C1464      H1983   1.076       .  S
C1465      C1466   1.388       .  A
C1465      H1984   1.084       .  S
C1466      C1467   1.399       .  A
C1466      H1477   1.084       .  S
C1467      C1468   1.421       .  A
C1467      C1472   1.400       .  A
C1468      C1469   1.416       .  A
C1469      C1470   1.399       .  A
C1469      H1478   1.078       .  S
C1470      C1471   1.399       .  A
C1470      H1479   1.083       .  S
C1471      C1472   1.400       .  A
C1472      H1480   1.085       .  S
H1475      C1972   1.076       .  S
H1476      C1973   1.084       .  S
C1481      C1482   1.403       .  A
C1481      C1486   1.401       .  A
C1482      C1483   1.400       .  A
C1482      H2003   1.083       .  S
C1483      C1484   1.414       .  A
C1483      H1496   1.078       .  S
C1484      C1490   1.433       .  A
C1484      C1485   1.423       .  A
C1485      C1487   1.399       .  A
C1485      C1486   1.406       .  A
C1486      H1497   1.084       .  S
C1487      C1488   1.390       .  A
C1487      H1498   1.084       .  S
C1488      C1489   1.400       .  A
C1488      H1499   1.084       .  S
C1489      C1490   1.421       .  A
C1489      C1494   1.404       .  A
C1490      C1491   1.417       .  A
C1491      C1492   1.403       .  A
C1491      H1500   1.078       .  S
C1492      C1493   1.401       .  A
C1492      H1501   1.083       .  S
C1493      C1494   1.403       .  A
C1494      H1502   1.085       .  S
H1495      C1990   1.083       .  S
C1503      C1504   1.397       .  A
C1503      C1508   1.404       .  A
C1504      C1505   1.394       .  A
C1504      H1517   1.074       .  S
C1505      C1506   1.413       .  A
C1505      H1518   1.077       .  S
C1506      C1512   1.428       .  A
C1506      C1507   1.421       .  A
C1507      C1509   1.400       .  A
C1507      C1508   1.406       .  A
C1509      C1510   1.392       .  A
C1510      C1511   1.400       .  A
C1510      H1521   1.084       .  S
C1511      C1512   1.422       .  A
C1511      C1516   1.407       .  A
C1512      C1513   1.414       .  A
C1513      C1514   1.394       .  A
C1513      H1522   1.077       .  S
C1514      C1515   1.400       .  A
C1514      H1523   1.083       .  S
C1515      C1516   1.402       .  A
C1516      H1524   1.084       .  S
O1525      C1541   1.273       .  A
O1525     Zn1531   2.011       .  S
C1526      O1542   1.272       .  A
C1526      O1539   1.272       .  A
C1526      C1901   1.479       .  S
O1527      C1540   1.278       .  A
O1527     Cd1534   2.089       .  S
O1528      C1546   1.273       .  A
O1528     Cd1537   2.048       .  S
O1529      C1543   1.274       .  A
O1529     Cd1533   2.068       .  S
O1530      C1541   1.273       .  A
O1530     Cd1533   2.063       .  S
Zn1531     O1542   2.009       .  S
Zn1531     O1544   2.005       .  S
Zn1531     O1536   1.939       .  S
O1532      C1543   1.272       .  A
O1532     Cd1537   2.053       .  S
Cd1533     O1535   2.059       .  S
Cd1533     O1536   1.996       .  S
Cd1534     O1538   2.109       .  S
Cd1534     O1547   2.087       .  S
Cd1534     O1536   2.011       .  S
O1535      C1545   1.275       .  A
O1536     Cd1537   1.993       .  S
Cd1537     O1539   2.058       .  S
O1538      C1545   1.281       .  A
C1540      O1544   1.274       .  A
C1540      C2023   1.479       .  S
C1541      C1945   1.480       .  S
C1543      C1923   1.479       .  S
C1545      C2001   1.484       .  S
C1546      O1547   1.277       .  A
C1546      C1979   1.474       .  S
O1548      C1564   1.274       .  A
O1548     Zn1554   2.013       .  S
C1549      O1565   1.275       .  A
C1549      O1562   1.271       .  A
C1549      C1813   1.479       .  S
O1550      C1563   1.277       .  A
O1550     Cd1557   2.084       .  S
O1551      C1569   1.271       .  A
O1551     Cd1560   2.041       .  S
O1552      C1566   1.275       .  A
O1552     Cd1556   2.084       .  S
O1553      C1564   1.273       .  A
O1553     Cd1556   2.057       .  S
Zn1554     O1565   2.025       .  S
Zn1554     O1567   2.017       .  S
Zn1554     O1559   1.944       .  S
O1555      C1566   1.270       .  A
O1555     Cd1560   2.037       .  S
Cd1556     O1558   2.060       .  S
Cd1556     O1559   1.998       .  S
Cd1557     O1561   2.097       .  S
Cd1557     O1570   2.082       .  S
Cd1557     O1559   2.006       .  S
O1558      C1568   1.275       .  A
O1559     Cd1560   1.982       .  S
Cd1560     O1562   2.046       .  S
O1561      C1568   1.279       .  A
C1563      O1567   1.275       .  A
C1563      C1891   1.478       .  S
C1564      C1791   1.479       .  S
C1566      C1769   1.480       .  S
C1568      C1847   1.479       .  S
C1569      O1570   1.277       .  A
C1569      C1869   1.471       .  S
C1573      H1574   1.111       .  S
C1575      C1578   1.381       .  D
C1575      C1989   1.495       .  S
C1576      C1579   1.377       .  D
C1576      C2011   1.493       .  S
C1577      C1580   1.376       .  D
C1577      C1967   1.488       .  S
C1578      C1857   1.487       .  S
C1579      C1879   1.488       .  S
C1580      C1835   1.489       .  S
O1581      C1597   1.273       .  A
O1581     Zn1587   2.017       .  S
C1582      O1598   1.274       .  A
C1582      O1595   1.272       .  A
C1582      C1803   1.481       .  S
O1583      C1596   1.279       .  A
O1583     Cd1590   2.091       .  S
O1584      C1602   1.274       .  A
O1584     Cd1593   2.057       .  S
O1585      C1599   1.272       .  A
O1585     Cd1589   2.055       .  S
O1586      C1597   1.271       .  A
O1586     Cd1589   2.047       .  S
Zn1587     O1598   2.020       .  S
Zn1587     O1600   2.008       .  S
Zn1587     O1592   1.943       .  S
O1588      C1599   1.274       .  A
O1588     Cd1593   2.064       .  S
Cd1589     O1591   2.050       .  S
Cd1589     O1592   1.988       .  S
Cd1590     O1594   2.094       .  S
Cd1590     O1603   2.088       .  S
Cd1590     O1592   2.010       .  S
O1591      C1601   1.274       .  A
O1592     Cd1593   1.991       .  S
Cd1593     O1595   2.057       .  S
O1594      C1601   1.278       .  A
C1596      O1600   1.275       .  A
C1596      C1725   1.478       .  S
C1597      C1825   1.477       .  S
C1599      C1781   1.479       .  S
C1601      C1715   1.480       .  S
C1602      O1603   1.277       .  A
C1602      C1759   1.472       .  S
O1604      C1620   1.273       .  A
O1604     Zn1610   2.001       .  S
C1605      O1621   1.275       .  A
C1605      O1618   1.273       .  A
C1605      C1957   1.482       .  S
O1606      C1619   1.276       .  A
O1606     Cd1613   2.077       .  S
O1607      C1625   1.273       .  A
O1607     Cd1616   2.053       .  S
O1608      C1622   1.273       .  A
O1608     Cd1612   2.067       .  S
O1609      C1620   1.274       .  A
O1609     Cd1612   2.063       .  S
Zn1610     O1621   2.022       .  S
Zn1610     O1623   2.017       .  S
Zn1610     O1615   1.940       .  S
O1611      C1622   1.273       .  A
O1611     Cd1616   2.058       .  S
Cd1612     O1614   2.053       .  S
Cd1612     O1615   1.996       .  S
Cd1613     O1617   2.097       .  S
Cd1613     O1626   2.083       .  S
Cd1613     O1615   2.007       .  S
O1614      C1624   1.274       .  A
O1615     Cd1616   1.992       .  S
Cd1616     O1618   2.059       .  S
O1617      C1624   1.278       .  A
C1619      O1623   1.275       .  A
C1619      C1649   1.476       .  S
C1620      C1913   1.478       .  S
C1622      C1935   1.480       .  S
C1624      C1681   1.475       .  S
C1625      O1626   1.277       .  A
C1625      C1671   1.472       .  S
C1627      H1628   1.109       .  S
C1627      C1633   1.536       .  S
C1629      H1630   1.111       .  S
C1629      C1636   1.538       .  S
C1631      C1634   1.374       .  D
C1631      C1747   1.482       .  S
C1632      C1635   1.382       .  D
C1632      C1703   1.502       .  S
C1633      C1636   1.376       .  D
C1633      C1737   1.487       .  S
C1634      C1693   1.485       .  S
C1635      C1659   1.485       .  S
C1636      C1637   1.488       .  S
C1637      C1638   1.401       .  A
C1637      C1642   1.398       .  A
C1638      C1639   1.396       .  A
C1638      H1651   1.083       .  S
C1639      C1640   1.414       .  A
C1639      H1652   1.078       .  S
C1640      C1646   1.429       .  A
C1640      C1641   1.422       .  A
C1641      C1643   1.399       .  A
C1641      C1642   1.405       .  A
C1642      H1653   1.080       .  S
C1643      C1644   1.390       .  A
C1643      H1654   1.084       .  S
C1644      C1645   1.400       .  A
C1644      H1655   1.084       .  S
C1645      C1646   1.422       .  A
C1645      C1650   1.405       .  A
C1646      C1647   1.415       .  A
C1647      C1648   1.398       .  A
C1647      H1656   1.078       .  S
C1648      C1649   1.399       .  A
C1648      H1657   1.083       .  S
C1649      C1650   1.400       .  A
C1650      H1658   1.085       .  S
C1659      C1660   1.401       .  A
C1659      C1664   1.397       .  A
C1660      C1661   1.396       .  A
C1660      H1673   1.083       .  S
C1661      C1662   1.414       .  A
C1661      H1674   1.078       .  S
C1662      C1668   1.427       .  A
C1662      C1663   1.422       .  A
C1663      C1665   1.399       .  A
C1663      C1664   1.402       .  A
C1665      C1666   1.389       .  A
C1666      C1667   1.399       .  A
C1666      H1677   1.084       .  S
C1667      C1668   1.421       .  A
C1667      C1672   1.402       .  A
C1668      C1669   1.416       .  A
C1669      C1670   1.398       .  A
C1669      H1678   1.078       .  S
C1670      C1671   1.398       .  A
C1670      H1679   1.083       .  S
C1671      C1672   1.400       .  A
C1672      H1680   1.085       .  S
C1681      C1682   1.399       .  A
C1681      C1686   1.401       .  A
C1682      C1683   1.392       .  A
C1682      H1695   1.084       .  S
C1683      C1684   1.413       .  A
C1683      H1696   1.077       .  S
C1684      C1690   1.429       .  A
C1684      C1685   1.424       .  A
C1685      C1687   1.400       .  A
C1685      C1686   1.409       .  A
C1686      H1697   1.084       .  S
C1687      C1688   1.392       .  A
C1687      H1698   1.084       .  S
C1688      C1689   1.400       .  A
C1689      C1690   1.421       .  A
C1689      C1694   1.405       .  A
C1690      C1691   1.416       .  A
C1691      C1692   1.394       .  A
C1691      H1700   1.076       .  S
C1692      C1693   1.396       .  A
C1693      C1694   1.403       .  A
C1703      C1704   1.400       .  A
C1703      C1708   1.407       .  A
C1704      C1705   1.393       .  A
C1704      H1717   1.076       .  S
C1705      C1706   1.413       .  A
C1705      H1718   1.077       .  S
C1706      C1712   1.429       .  A
C1706      C1707   1.420       .  A
C1707      C1708   1.406       .  A
C1709      H1720   1.084       .  S
C1710      C1711   1.400       .  A
C1710      H1721   1.084       .  S
C1711      C1712   1.423       .  A
C1711      C1716   1.409       .  A
C1712      C1713   1.413       .  A
C1713      C1714   1.392       .  A
C1713      H1722   1.077       .  S
C1714      C1715   1.401       .  A
C1714      H1723   1.084       .  S
C1715      C1716   1.402       .  A
C1716      H1724   1.084       .  S
C1725      C1726   1.400       .  A
C1725      C1730   1.401       .  A
C1726      C1727   1.395       .  A
C1726      H1739   1.084       .  S
C1727      C1728   1.414       .  A
C1727      H1740   1.077       .  S
C1728      C1734   1.429       .  A
C1728      C1729   1.424       .  A
C1729      C1731   1.400       .  A
C1729      C1730   1.407       .  A
C1730      H1741   1.084       .  S
C1731      C1732   1.391       .  A
C1731      H1742   1.084       .  S
C1732      C1733   1.400       .  A
C1732      H1743   1.084       .  S
C1733      C1734   1.421       .  A
C1733      C1738   1.404       .  A
C1734      C1735   1.416       .  A
C1735      C1736   1.396       .  A
C1735      H1744   1.077       .  S
C1736      C1737   1.398       .  A
C1736      H1745   1.083       .  S
C1737      C1738   1.402       .  A
C1738      H1746   1.084       .  S
C1747      C1748   1.395       .  A
C1747      C1752   1.401       .  A
C1748      C1749   1.394       .  A
C1748      H1761   1.078       .  S
C1749      C1750   1.414       .  A
C1749      H1762   1.077       .  S
C1750      C1756   1.428       .  A
C1750      C1751   1.422       .  A
C1751      C1753   1.399       .  A
C1751      C1752   1.405       .  A
C1752      H1763   1.085   1_565  S
C1753      C1754   1.391       .  A
C1753      H1764   1.084       .  S
C1754      C1755   1.400       .  A
C1754      H1765   1.084       .  S
C1755      C1756   1.423       .  A
C1755      C1760   1.407       .  A
C1756      C1757   1.414       .  A
C1757      C1758   1.394       .  A
C1757      H1766   1.077       .  S
C1758      C1759   1.398       .  A
C1758      H1767   1.084       .  S
C1759      C1760   1.400       .  A
C1760      H1768   1.085       .  S
C1769      C1770   1.402       .  A
C1769      C1774   1.402       .  A
C1770      C1771   1.390       .  A
C1770      H1783   1.083       .  S
C1771      C1772   1.411       .  A
C1771      H1784   1.077       .  S
C1772      C1773   1.423       .  A
C1773      C1774   1.407       .  A
C1774      H1785   1.084       .  S
C1775      C1776   1.391   1_545  A
C1775      H1786   1.084       .  S
C1776      C1777   1.400       .  A
C1776      H1787   1.084       .  S
C1777      C1778   1.421       .  A
C1777      C1782   1.404       .  A
C1778      C1779   1.415       .  A
C1779      C1780   1.393       .  A
C1780      C1781   1.399       .  A
C1780      H1789   1.083       .  S
C1781      C1782   1.404       .  A
C1782      H1790   1.084       .  S
C1791      C1792   1.401       .  A
C1791      C1796   1.402       .  A
C1792      C1793   1.394       .  A
C1792      H1805   1.083       .  S
C1793      C1794   1.414       .  A
C1794      C1795   1.422       .  A
C1795      C1797   1.399       .  A
C1795      C1796   1.404       .  A
C1796      H1807   1.084       .  S
C1797      C1798   1.389   1_655  A
C1797      H1808   1.084       .  S
C1798      H1809   1.084       .  S
C1799      C1800   1.422       .  A
C1799      C1804   1.404       .  A
C1800      C1801   1.414       .  A
C1801      C1802   1.395       .  A
C1801      H1810   1.077       .  S
C1802      C1803   1.401       .  A
C1802      H1811   1.083       .  S
C1803      C1804   1.403       .  A
C1804      H1812   1.084       .  S
C1813      C1814   1.399       .  A
C1813      C1818   1.403       .  A
C1814      C1815   1.395       .  A
C1814      H1827   1.083       .  S
C1815      C1816   1.416       .  A
C1815      H1828   1.077       .  S
C1816      C1822   1.427       .  A
C1816      C1817   1.421       .  A
C1817      C1819   1.399       .  A
C1817      C1818   1.401       .  A
C1818      H1829   1.084       .  S
C1819      C1820   1.388       .  A
C1819      H1830   1.084       .  S
C1820      C1821   1.399       .  A
C1820      H1831   1.084       .  S
C1821      C1822   1.423       .  A
C1821      C1826   1.403       .  A
C1822      C1823   1.413       .  A
C1823      C1824   1.393       .  A
C1823      H1832   1.077       .  S
C1824      C1825   1.401       .  A
C1824      H1833   1.083       .  S
C1825      C1826   1.401       .  A
C1826      H1834   1.084       .  S
C1835      C1836   1.402       .  A
C1835      C1840   1.398       .  A
C1836      C1837   1.398       .  A
C1836      H1849   1.083       .  S
C1837      C1838   1.414       .  A
C1837      H1850   1.078       .  S
C1838      C1844   1.432       .  A
C1838      C1839   1.424       .  A
C1839      C1841   1.398       .  A
C1839      C1840   1.406       .  A
C1840      H1851   1.085   1_655  S
C1841      C1842   1.389       .  A
C1841      H1852   1.084   1_655  S
C1842      C1843   1.399       .  A
C1842      H1853   1.084       .  S
C1843      C1844   1.421       .  A
C1843      C1848   1.403       .  A
C1844      C1845   1.418       .  A
C1845      C1846   1.402       .  A
C1845      H1854   1.078       .  S
C1846      C1847   1.400       .  A
C1846      H1855   1.083       .  S
C1847      C1848   1.401       .  A
C1848      H1856   1.085       .  S
C1857      C1858   1.397       .  A
C1857      C1862   1.401       .  A
C1858      C1859   1.394       .  A
C1858      H1871   1.076       .  S
C1859      C1860   1.414       .  A
C1859      H1872   1.077       .  S
C1860      C1866   1.426       .  A
C1860      C1861   1.421       .  A
C1861      C1863   1.399       .  A
C1861      C1862   1.400       .  A
C1862      H1873   1.084       .  S
C1863      C1864   1.388       .  A
C1863      H1874   1.084       .  S
C1864      C1865   1.399       .  A
C1864      H1875   1.084       .  S
C1865      C1866   1.423       .  A
C1865      C1870   1.403       .  A
C1866      C1867   1.414       .  A
C1867      C1868   1.393       .  A
C1867      H1876   1.077       .  S
C1868      C1869   1.400       .  A
C1868      H1877   1.084       .  S
C1869      C1870   1.398       .  A
C1870      H1878   1.085       .  S
C1879      C1880   1.401       .  A
C1879      C1884   1.398       .  A
C1880      C1881   1.398       .  A
C1880      H1893   1.083       .  S
C1881      C1882   1.415       .  A
C1881      H1894   1.078       .  S
C1882      C1888   1.430       .  A
C1882      C1883   1.421       .  A
C1883      C1885   1.399       .  A
C1883      C1884   1.404       .  A
C1885      C1886   1.390       .  A
C1886      C1887   1.400       .  A
C1886      H1897   1.084       .  S
C1887      C1888   1.422       .  A
C1887      C1892   1.405       .  A
C1888      C1889   1.415       .  A
C1889      C1890   1.399       .  A
C1889      H1898   1.078       .  S
C1890      C1891   1.400       .  A
C1890      H1899   1.083       .  S
C1891      C1892   1.401       .  A
C1892      H1900   1.085       .  S
C1901      C1902   1.401       .  A
C1901      C1906   1.401       .  A
C1902      C1903   1.395       .  A
C1902      H1915   1.083       .  S
C1903      C1904   1.414   1_556  A
C1904      C1905   1.422       .  A
C1905      C1907   1.399       .  A
C1905      C1906   1.402   1_554  A
C1906      H1917   1.084       .  S
C1907      C1908   1.387   1_655  A
C1907      H1918   1.084       .  S
C1908      H1919   1.084       .  S
C1909      C1910   1.421       .  A
C1909      C1914   1.401       .  A
C1910      C1911   1.415       .  A
C1911      C1912   1.396       .  A
C1911      H1920   1.077       .  S
C1912      C1913   1.401       .  A
C1912      H1921   1.083       .  S
C1913      C1914   1.401       .  A
C1914      H1922   1.084       .  S
C1923      C1924   1.401       .  A
C1923      C1928   1.401       .  A
C1924      C1925   1.394       .  A
C1924      H1937   1.083       .  S
C1925      C1926   1.414   1_556  A
C1925      H1938   1.077       .  S
C1926      C1927   1.422   1_554  A
C1927      C1929   1.399   1_556  A
C1927      C1928   1.403       .  A
C1928      H1939   1.084       .  S
C1929      H1940   1.084       .  S
C1930      C1931   1.399       .  A
C1930      H1941   1.084       .  S
C1931      C1932   1.422       .  A
C1931      C1936   1.404       .  A
C1932      C1933   1.414       .  A
C1933      C1934   1.394       .  A
C1933      H1942   1.077       .  S
C1934      C1935   1.401       .  A
C1934      H1943   1.083       .  S
C1935      C1936   1.402       .  A
C1936      H1944   1.084       .  S
C1945      C1946   1.401       .  A
C1945      C1950   1.402       .  A
C1946      C1947   1.397       .  A
C1946      H1959   1.083       .  S
C1947      C1948   1.415   1_556  A
C1947      H1960   1.077       .  S
C1948      C1954   1.430       .  A
C1948      C1949   1.422   1_554  A
C1949      C1951   1.399   1_556  A
C1949      C1950   1.402       .  A
C1950      H1961   1.084       .  S
C1951      C1952   1.388       .  A
C1951      H1962   1.084       .  S
C1952      C1953   1.399       .  A
C1952      H1963   1.084       .  S
C1953      C1954   1.422       .  A
C1953      C1958   1.403       .  A
C1954      C1955   1.415       .  A
C1955      C1956   1.397       .  A
C1955      H1964   1.077       .  S
C1956      C1957   1.401       .  A
C1956      H1965   1.083       .  S
C1957      C1958   1.402       .  A
C1958      H1966   1.084       .  S
C1967      C1968   1.403       .  A
C1967      C1972   1.396       .  A
C1968      C1969   1.395       .  A
C1968      H1981   1.083       .  S
C1969      C1970   1.413       .  A
C1969      H1982   1.078       .  S
C1970      C1976   1.427       .  A
C1970      C1971   1.422       .  A
C1971      C1973   1.398       .  A
C1971      C1972   1.402       .  A
C1973      C1974   1.388       .  A
C1974      C1975   1.399       .  A
C1974      H1985   1.084       .  S
C1975      C1976   1.421       .  A
C1975      C1980   1.400       .  A
C1976      C1977   1.416       .  A
C1977      C1978   1.399       .  A
C1977      H1986   1.078       .  S
C1978      C1979   1.399       .  A
C1978      H1987   1.083       .  S
C1979      C1980   1.400       .  A
C1980      H1988   1.085       .  S
C1989      C1990   1.403       .  A
C1989      C1994   1.401       .  A
C1990      C1991   1.400       .  A
C1991      C1992   1.414       .  A
C1991      H2004   1.078       .  S
C1992      C1998   1.433       .  A
C1992      C1993   1.423       .  A
C1993      C1995   1.399       .  A
C1993      C1994   1.406       .  A
C1994      H2005   1.084       .  S
C1995      C1996   1.390       .  A
C1995      H2006   1.084       .  S
C1996      C1997   1.400       .  A
C1996      H2007   1.084       .  S
C1997      C1998   1.421       .  A
C1997      C2002   1.404       .  A
C1998      C1999   1.417       .  A
C1999      C2000   1.403       .  A
C1999      H2008   1.078       .  S
C2000      C2001   1.401       .  A
C2000      H2009   1.083       .  S
C2001      C2002   1.403       .  A
C2002      H2010   1.085       .  S
C2011      C2012   1.397       .  A
C2011      C2016   1.404       .  A
C2012      C2013   1.394       .  A
C2012      H2025   1.074       .  S
C2013      C2014   1.413       .  A
C2013      H2026   1.077       .  S
C2014      C2020   1.428       .  A
C2014      C2015   1.421       .  A
C2015      C2017   1.400       .  A
C2015      C2016   1.406       .  A
C2017      C2018   1.392       .  A
C2018      C2019   1.400       .  A
C2018      H2029   1.084       .  S
C2019      C2020   1.422       .  A
C2019      C2024   1.407       .  A
C2020      C2021   1.414       .  A
C2021      C2022   1.394       .  A
C2021      H2030   1.077       .  S
C2022      C2023   1.400       .  A
C2022      H2031   1.083       .  S
C2023      C2024   1.402       .  A
C2024      H2032   1.084       .  S
