geometry optimzed in LAMMPS
_audit_creation_date              2020-12-01 
_audit_creation_method            'lammps2cif' 
_symmetry_space_group_name_H-M    'P1' 
_symmetry_Int_Tables_number       1 
_symmetry_cell_setting            triclinic 
loop_ 
_symmetry_equiv_pos_as_xyz 
  x,y,z 
_cell_length_a                    35.98423749 
_cell_length_b                    35.653265658834144 
_cell_length_c                    36.00220260529948 
_cell_angle_alpha                 89.74928099145897 
_cell_angle_beta                  90.21749472670997 
_cell_angle_gamma                 89.77620631962002 
loop_ 
_atom_site_label 
_atom_site_type_symbol 
_atom_site_fract_x 
_atom_site_fract_y 
_atom_site_fract_z 
_atom_site_charge 
Fe1        Fe  0.19971349  0.58436313  0.49902687     1.65800
Fe2        Fe  0.10958633  0.58358861  0.52067786     1.73200
Fe3        Fe  0.16931501  0.62658054  0.57704416     1.54400
O4          O  0.20276429  0.58368681  0.59464224    -0.81800
O5          O  0.08669118  0.63189800  0.54507586    -0.80100
O6          O  0.23471826  0.57028932  0.54303391    -0.84300
O7          O  0.21842665  0.63793512  0.49644555    -0.79200
O8          O  0.12469669  0.60059534  0.60601165    -0.81000
O9          O  0.10960187  0.61202362  0.47244016    -0.83700
C10         C  0.23173335  0.65625217  0.52311733     0.97100
C11         C  0.22843685  0.56626091  0.57765350     1.04500
O12         O  0.15978344  0.59867845  0.53171653    -1.12700
O13         O  0.12420344  0.53451477  0.49234232    -0.75100
O14         O  0.18535055  0.52863133  0.49684813    -0.78600
O15         O  0.21748674  0.65451634  0.55563160    -0.79300
C16         C  0.15403580  0.51603522  0.48730454     0.96000
O17         O  0.16716173  0.59717067  0.45336169    -0.77300
O18         O  0.10922353  0.55380198  0.56869544    -0.82400
C19         C  0.09911232  0.66457213  0.55265316     0.98600
C20         C  0.10837136  0.56932959  0.60007679     1.04500
O21         O  0.13352672  0.66976111  0.56002902    -0.78100
C22         C  0.13443240  0.60999616  0.44791078     1.02800
Fe23       Fe  0.17522125  0.54002391  0.24982715     1.65800
Fe24       Fe  0.16837208  0.63084293  0.22690799     1.73200
Fe25       Fe  0.12907603  0.56734043  0.17155791     1.54400
O26         O  0.16880185  0.52996869  0.15419003    -0.81800
O27         O  0.12171766  0.65286087  0.20008497    -0.80100
O28         O  0.19144039  0.50497087  0.20676982    -0.84300
O29         O  0.12498597  0.51499850  0.25318950    -0.79200
O30         O  0.15803538  0.61041294  0.14043793    -0.81000
O31         O  0.13808978  0.62793829  0.27319404    -0.83700
C32         C  0.10123060  0.50578395  0.22918119     0.97100
C33         C  0.18864577  0.50592154  0.17143835     1.04500
O34         O  0.15748563  0.57875215  0.21605760    -1.12700
O35         O  0.21685642  0.62016576  0.25662614    -0.75100
O36         O  0.22880381  0.55952293  0.25187437    -0.78600
O37         O  0.09933451  0.52166556  0.19707105    -0.79300
C38         C  0.23843422  0.59226966  0.26064044     0.96000
O39         O  0.15914716  0.57249619  0.29479465    -0.77300
O40         O  0.19913431  0.63337328  0.18088857    -0.82400
C41         C  0.08991748  0.63901841  0.19356789     0.98600
C42         C  0.18764803  0.62929327  0.14804203     1.04500
O43         O  0.08643081  0.60417930  0.18685889    -0.78100
C44         C  0.14210835  0.60377357  0.29854783     1.02800
Fe45       Fe  0.25708691  0.15532577  0.56065739     1.65800
Fe46       Fe  0.22056303  0.15478807  0.64510509     1.73200
Fe47       Fe  0.18072576  0.10375866  0.57948934     1.54400
O48         O  0.16322396  0.14337825  0.54200959    -0.81800
O49         O  0.19922220  0.10358970  0.66564313    -0.80100
O50         O  0.21749375  0.16240363  0.51810289    -0.84300
O51         O  0.26916400  0.10161006  0.54609556    -0.79200
O52         O  0.14269326  0.12549605  0.62006996    -0.81000
O53         O  0.27091875  0.13292527  0.65521936    -0.83700
C54         C  0.24776744  0.08006271  0.52857791     0.97100
C55         C  0.18190362  0.16137910  0.51782767     1.04500
O56         O  0.22037717  0.13736965  0.59490136    -1.12700
O57         O  0.24445101  0.20677730  0.63357573    -0.75100
O58         O  0.25087255  0.21140909  0.57257893    -0.78600
O59         O  0.21298860  0.07864603  0.53601084    -0.79300
C60         C  0.25318798  0.22537846  0.60472058     0.96000
O61         O  0.29751008  0.15076414  0.60160814    -0.77300
O62         O  0.17089356  0.17831431  0.63333422    -0.82400
C63         C  0.19908303  0.06999000  0.65312069     0.98600
C64         C  0.14309808  0.15754035  0.63604012     1.04500
O65         O  0.19784352  0.06357159  0.61823873    -0.78100
C66         C  0.29885105  0.14029213  0.63559909     1.02800
Fe67       Fe  0.50104529  0.20172166  0.59840850     1.65800
Fe68       Fe  0.51085572  0.10996880  0.60653443     1.73200
Fe69       Fe  0.57513609  0.16527318  0.64508852     1.54400
O70         O  0.59607706  0.20087925  0.60512807    -0.81800
O71         O  0.53772639  0.08373917  0.65076280    -0.80100
O72         O  0.54692800  0.23108981  0.58148362    -0.84300
O73         O  0.50093936  0.22756535  0.64795366    -0.79200
O74         O  0.59926654  0.11986245  0.61484650    -0.81000
O75         O  0.46783364  0.12001542  0.64033824    -0.83700
C76         C  0.52468616  0.23223687  0.67328161     0.97100
C77         C  0.58169002  0.22545071  0.58376227     1.04500
O78         O  0.52929725  0.15960612  0.61727565    -1.12700
O79         O  0.47842719  0.12491319  0.55984368    -0.75100
O80         O  0.49862796  0.18109388  0.54538989    -0.78600
O81         O  0.55440847  0.21222083  0.67616665    -0.79300
C82         C  0.48122195  0.15184493  0.53686538     0.96000
O83         O  0.45266628  0.17564259  0.61530183    -0.77300
O84         O  0.55559319  0.10188263  0.57391812    -0.82400
C85         C  0.54983403  0.09427293  0.68215869     0.98600
C86         C  0.58883208  0.10152550  0.58584842     1.04500
O87         O  0.55881006  0.12836814  0.68756947    -0.78100
C88         C  0.44606796  0.14768334  0.63661218     1.02800
Fe89       Fe  0.59066948  0.48449767  0.21151222     1.65800
Fe90       Fe  0.60167480  0.49219967  0.12027582     1.73200
Fe91       Fe  0.63331999  0.56130113  0.17507727     1.54400
O92         O  0.59325892  0.58045040  0.21230410    -0.81800
O93         O  0.64482694  0.51980511  0.09445230    -0.80100
O94         O  0.56886161  0.52967170  0.23873989    -0.84300
O95         O  0.63885595  0.48935813  0.23927341    -0.79200
O96         O  0.59967292  0.58348794  0.13080869    -0.81000
O97         O  0.63765455  0.45131243  0.13370409    -0.83700
C98         C  0.66475454  0.51292235  0.24153171     0.97100
C99         C  0.57158235  0.56490848  0.23567915     1.04500
O100        O  0.60876007  0.51326761  0.16949882    -1.12700
O101        O  0.55658083  0.45797657  0.13390450    -0.75100
O102        O  0.53911313  0.47788481  0.18885757    -0.78600
O103        O  0.66717587  0.54180020  0.22020237    -0.79300
C104        C  0.53244898  0.46066849  0.15925659     0.96000
O105        O  0.61259989  0.43600822  0.18847516    -0.77300
O106        O  0.56687805  0.53489580  0.10820321    -0.82400
C107        C  0.67467873  0.53450148  0.10570802     0.98600
C108        C  0.57309735  0.56983438  0.11085219     1.04500
O109        O  0.67705362  0.54761345  0.13849462    -0.78100
C110        C  0.63485241  0.42990173  0.16154257     1.02800
Fe111      Fe  0.56783888  0.24204521  0.16691671     1.65800
Fe112      Fe  0.65157810  0.20175328  0.17416454     1.73200
Fe113      Fe  0.58915645  0.16600577  0.11553678     1.54400
O114        O  0.54992037  0.14752748  0.15264280    -0.81800
O115        O  0.67530164  0.18366434  0.12327806    -0.80100
O116        O  0.52519759  0.20198456  0.17166133    -0.84300
O117        O  0.55541082  0.25555375  0.11301208    -0.79200
O118        O  0.62869020  0.12622582  0.13647513    -0.81000
O119        O  0.66512213  0.25389634  0.15832729    -0.83700
C120        C  0.53885101  0.23462463  0.09027182     0.97100
C121        C  0.52571193  0.16598422  0.17091713     1.04500
O122        O  0.60307897  0.20461707  0.15145012    -1.12700
O123        O  0.63610575  0.22284707  0.22641049    -0.75100
O124        O  0.57589897  0.23565709  0.22291709    -0.78600
O125        O  0.54662764  0.19953882  0.08885576    -0.79300
C126        C  0.60610463  0.23495145  0.24080785     0.96000
O127        O  0.60944598  0.28216318  0.16506048    -0.77300
O128        O  0.63750065  0.14969362  0.19180385    -0.82400
C129        C  0.66544869  0.18281239  0.08891982     0.98600
C130        C  0.64366057  0.12433892  0.16862492     1.04500
O131        O  0.63103294  0.18354135  0.07937019    -0.78100
C132        C  0.64471392  0.28258588  0.16056523     1.02800
Fe133      Fe  0.70693936  0.91150148  0.50315736     1.65800
Fe134      Fe  0.61528161  0.89641523  0.49324297     1.73200
Fe135      Fe  0.67675752  0.86037644  0.43246691     1.54400
O136        O  0.71963419  0.89738875  0.41829779    -0.81800
O137        O  0.59975970  0.84114722  0.48661924    -0.80100
O138        O  0.71932183  0.94485731  0.45880500    -0.84300
O139        O  0.74527520  0.87387622  0.48381113    -0.79200
O140        O  0.64176531  0.89528597  0.40064393    -0.81000
O141        O  0.63187323  0.88232368  0.54596653    -0.83700
C142        C  0.74098429  0.83902064  0.48153383     0.97100
C143        C  0.72879104  0.93068892  0.42784441     1.04500
O144        O  0.66553556  0.88971846  0.47591658    -1.12700
O145        O  0.62264814  0.95325940  0.50167704    -0.75100
O146        O  0.67791761  0.95439935  0.52828081    -0.78600
O147        O  0.71269194  0.82572528  0.46472319    -0.79300
C148        C  0.64710878  0.96967125  0.52088932     0.96000
O149        O  0.69405744  0.87654209  0.54590506    -0.77300
O150        O  0.59698359  0.91040710  0.44138110    -0.82400
C151        C  0.60729695  0.81652827  0.46251435     0.98600
C152        C  0.61218553  0.91300899  0.40969459     1.04500
O153        O  0.63435197  0.82064919  0.44010532    -0.78100
C154        C  0.66230956  0.87056694  0.56013489     1.02800
Fe155      Fe  0.66534453  0.93415798  0.75620693     1.65800
Fe156      Fe  0.66636470  0.84564319  0.78565551     1.73200
Fe157      Fe  0.61614568  0.90836754  0.83148988     1.54400
O158        O  0.65635628  0.94419581  0.85091302    -0.81800
O159        O  0.61585569  0.82316722  0.80602052    -0.80100
O160        O  0.67176835  0.97397608  0.79837415    -0.84300
O161        O  0.61183689  0.95000025  0.74559012    -0.79200
O162        O  0.63786668  0.86429557  0.86574658    -0.81000
O163        O  0.64439515  0.84008999  0.73477096    -0.83700
C164        C  0.59173983  0.96615300  0.76933241     0.97100
C165        C  0.67325511  0.97039384  0.83371152     1.04500
O166        O  0.64844914  0.89614818  0.79011945    -1.12700
O167        O  0.71785297  0.85997203  0.76208849    -0.75100
O168        O  0.72065666  0.92205749  0.76264577    -0.78600
O169        O  0.59105047  0.95504146  0.80321305    -0.79300
C170        C  0.73533066  0.89049220  0.75661706     0.96000
O171        O  0.66203734  0.89626104  0.71271261    -0.77300
O172        O  0.68988659  0.85220115  0.83617939    -0.82400
C173        C  0.58244992  0.83549972  0.80908458     0.98600
C174        C  0.66927408  0.84754680  0.86377841     1.04500
O175        O  0.57587975  0.87065533  0.81262062    -0.78100
C176        C  0.65231099  0.86208530  0.70855318     1.02800
Fe177      Fe  0.25494434  0.82991139  0.06090370     1.65800
Fe178      Fe  0.28605738  0.82488409  0.14798577     1.73200
Fe179      Fe  0.32782403  0.88245958  0.08842675     1.54400
O180        O  0.34956762  0.84392736  0.05173664    -0.81800
O181        O  0.30175601  0.87646945  0.17248905    -0.80100
O182        O  0.29728913  0.82891336  0.02162139    -0.84300
O183        O  0.24122481  0.88436545  0.04933529    -0.79200
O184        O  0.36364537  0.86216920  0.13169477    -0.81000
O185        O  0.23286992  0.84111795  0.15502031    -0.83700
C186        C  0.26354137  0.90535475  0.03225144     0.97100
C187        C  0.33251944  0.82695683  0.02562523     1.04500
O188        O  0.28845777  0.84650682  0.09928971    -1.12700
O189        O  0.26784370  0.77188875  0.13033980    -0.75100
O190        O  0.26413748  0.77357408  0.06879038    -0.78600
O191        O  0.29766354  0.90742500  0.04257049    -0.79300
C192        C  0.26156207  0.75607028  0.09925573     0.96000
O193        O  0.21136527  0.82769204  0.09802248    -0.77300
O194        O  0.33898433  0.80677116  0.14079417    -0.82400
C195        C  0.30527966  0.91094884  0.16256258     0.98600
C196        C  0.36394060  0.83016351  0.14775922     1.04500
O197        O  0.30724358  0.92014783  0.12806788    -0.78100
C198        C  0.20689753  0.83395686  0.13256581     1.02800
Fe199      Fe  0.00038282  0.77596034  0.08639203     1.65800
Fe200      Fe  0.99269907  0.86943062  0.09598631     1.73200
Fe201      Fe  0.92959434  0.81109189  0.13461998     1.54400
O202        O  0.91357884  0.76721614  0.09818729    -0.81800
O203        O  0.98354234  0.88973190  0.14918687    -0.80100
O204        O  0.95626563  0.76378336  0.05312732    -0.84300
O205        O  0.97811987  0.73964898  0.12427410    -0.79200
O206        O  0.89882596  0.84774996  0.09969452    -0.81000
O207        O  0.04410398  0.85206239  0.11377071    -0.83700
C208        C  0.97713251  0.74548144  0.15850776     0.97100
C209        C  0.92442295  0.75566429  0.06616256     1.04500
O210        O  0.97377009  0.81971061  0.10524670    -1.12700
O211        O  0.00382032  0.85814421  0.04068194    -0.75100
O212        O  0.02813517  0.80139578  0.04285796    -0.78600
O213        O  0.96059609  0.77467872  0.17053762    -0.79300
C214        C  0.02202352  0.83176440  0.02587022     0.96000
O215        O  0.04304707  0.78935891  0.12139218    -0.77300
O216        O  0.94212414  0.88765725  0.07822495    -0.82400
C217        C  0.96103164  0.88250366  0.17527776     0.98600
C218        C  0.90902664  0.87560890  0.07950856     1.04500
O219        O  0.93926165  0.85435630  0.17347493    -0.78100
C220        C  0.05771748  0.82146469  0.12641637     1.02800
Fe221      Fe  0.43359266  0.00191275  0.31126813     1.65800
Fe222      Fe  0.43127929  0.03281841  0.39831563     1.73200
Fe223      Fe  0.37702309  0.07395604  0.33500721     1.54400
O224        O  0.41431459  0.09655512  0.29728870    -0.81800
O225        O  0.37999199  0.04995938  0.42034881    -0.80100
O226        O  0.43668084  0.04434901  0.27114101    -0.84300
O227        O  0.38165160  0.98619380  0.29497148    -0.79200
O228        O  0.39664400  0.11132430  0.37758605    -0.81000
O229        O  0.41323740  0.97987490  0.40417620    -0.83700
C230        C  0.35605783  0.00653910  0.28165322     0.97100
C231        C  0.43333015  0.08006218  0.27228371     1.04500
O232        O  0.41336134  0.03541545  0.34798648    -1.12700
O233        O  0.48385360  0.01273410  0.38507415    -0.75100
O234        O  0.48820533  0.01242043  0.32379948    -0.78600
O235        O  0.35242834  0.04108551  0.29115194    -0.79300
C236        C  0.50235685  0.00748481  0.35558643     0.96000
O237        O  0.43288693  0.95788175  0.34922810    -0.77300
O238        O  0.45064684  0.08553915  0.39161175    -0.82400
C239        C  0.34643481  0.05025891  0.40851291     0.98600
C240        C  0.42753718  0.11165160  0.39549662     1.04500
O241        O  0.33913785  0.05279339  0.37378304    -0.78100
C242        C  0.42172235  0.95344378  0.38259739     1.02800
Fe243      Fe  0.45644354  0.74130986  0.34081739     1.65800
Fe244      Fe  0.36647687  0.73689748  0.35965682     1.73200
Fe245      Fe  0.42416689  0.66979455  0.39446067     1.54400
O246        O  0.46055739  0.64661756  0.35543608    -0.81800
O247        O  0.34363920  0.71348531  0.40676206    -0.80100
O248        O  0.48102313  0.69417614  0.32123767    -0.84300
O249        O  0.48904919  0.74001677  0.38666746    -0.79200
O250        O  0.37963213  0.64437285  0.36448702    -0.81000
O251        O  0.38222256  0.78178667  0.38991068    -0.83700
C252        C  0.49220416  0.72067939  0.41598378     0.97100
C253        C  0.48066925  0.65975395  0.32944781     1.04500
O254        O  0.41614857  0.71557960  0.36561870    -1.12700
O255        O  0.37684503  0.76753834  0.31082598    -0.75100
O256        O  0.42940206  0.74423661  0.29083885    -0.78600
O257        O  0.46996205  0.69371623  0.42422916    -0.79300
C258        C  0.40111435  0.76431055  0.28562302     0.96000
O259        O  0.43559335  0.79169926  0.35950450    -0.77300
O260        O  0.35274672  0.69057431  0.33033538    -0.82400
C261        C  0.35539948  0.69811537  0.43625813     0.98600
C262        C  0.35793226  0.65602997  0.33818776     1.04500
O263        O  0.38842638  0.68527694  0.43828705    -0.78100
C264        C  0.41035332  0.80162600  0.38232005     1.02800
Fe265      Fe  0.49338999  0.68447492  0.92494514     1.65800
Fe266      Fe  0.46716167  0.59551427  0.91402596     1.73200
Fe267      Fe  0.41674783  0.66386822  0.87339625     1.54400
O268        O  0.39933653  0.70199750  0.91277943    -0.81800
O269        O  0.44333562  0.57627777  0.86522545    -0.80100
O270        O  0.45207248  0.72282285  0.93782207    -0.84300
O271        O  0.50242557  0.70896768  0.87494562    -0.79200
O272        O  0.38127440  0.62359779  0.90085283    -0.81000
O273        O  0.51589810  0.59683794  0.88750235    -0.83700
C274        C  0.48097357  0.71998544  0.84930714     0.97100
C275        C  0.41693963  0.72420823  0.93401669     1.04500
O276        O  0.45896106  0.64846905  0.90389498    -1.12700
O277        O  0.49324287  0.60374209  0.96502334    -0.75100
O278        O  0.48889471  0.66419064  0.97798338    -0.78600
O279        O  0.44769294  0.70733161  0.84548126    -0.79300
C280        C  0.49646439  0.63093138  0.98741466     0.96000
O281        O  0.53781207  0.64897806  0.91424206    -0.77300
O282        O  0.41902283  0.59389410  0.94091872    -0.82400
C283        C  0.43779126  0.59121358  0.83367612     0.98600
C284        C  0.38693030  0.60297847  0.92990807     1.06900
O285        O  0.43126091  0.62630015  0.83074276    -0.78100
C286        C  0.54204723  0.61807457  0.89702719     1.02800
Fe287      Fe  0.74846343  0.64783694  0.95074341     1.65800
Fe288      Fe  0.76142804  0.63650825  0.86027512     1.73200
Fe289      Fe  0.82180748  0.59702276  0.92016167     1.54400
O290        O  0.84326218  0.63748116  0.95516515    -0.81800
O291        O  0.78656947  0.58927605  0.83743480    -0.80100
O292        O  0.79384228  0.66351579  0.98200697    -0.84300
O293        O  0.74453565  0.59879256  0.97807256    -0.79200
O294        O  0.84951641  0.62540198  0.87553633    -0.81000
O295        O  0.71571618  0.60567397  0.86908668    -0.83700
C296        C  0.76766600  0.57331524  0.98571664     0.97100
C297        C  0.82873102  0.65959416  0.97870133     1.04500
O298        O  0.77737332  0.62644134  0.91096271    -1.12700
O299        O  0.73085219  0.68541901  0.87225589    -0.75100
O300        O  0.75007114  0.70033151  0.92821399    -0.78600
O301        O  0.79795426  0.56850970  0.96730339    -0.79300
C302        C  0.73288669  0.70853272  0.89888329     0.96000
O303        O  0.70014509  0.63276139  0.92305847    -0.77300
O304        O  0.80818949  0.66699587  0.85262207    -0.82400
C305        C  0.79631835  0.55745930  0.85024185     0.98600
C306        C  0.84122475  0.65476573  0.85608222     1.04500
O307        O  0.80462226  0.55354695  0.88454757    -0.78100
C308        C  0.69282606  0.61262349  0.89468140     1.02800
Fe309      Fe  0.30848393  0.40814929  0.00273568     1.65800
Fe310      Fe  0.39537399  0.41512121  0.03343711     1.73200
Fe311      Fe  0.33963938  0.35200809  0.07185304     1.54400
O312        O  0.30159037  0.38712169  0.09603982    -0.81800
O313        O  0.42282940  0.36395323  0.04680138    -0.80100
O314        O  0.26961849  0.40475770  0.04553082    -0.84300
O315        O  0.29963863  0.35435566  0.98611429    -0.79200
O316        O  0.38123244  0.37223824  0.10845501    -0.81000
O317        O  0.40303504  0.40187758  0.97987942    -0.83700
C318        C  0.28478946  0.33053779  0.00725473     0.97100
C319        C  0.27469132  0.40468385  0.08069363     1.04500
O320        O  0.34800374  0.39108458  0.03477548    -1.12700
O321        O  0.37498468  0.46819935  0.01670834    -0.75100
O322        O  0.31357042  0.46393024  0.01499892    -0.78600
O323        O  0.29539547  0.32681936  0.04103779    -0.79300
C324        C  0.34296323  0.48270318  0.01109752     0.96000
O325        O  0.34534600  0.41459031  0.95920418    -0.77300
O326        O  0.38706204  0.42972797  0.08709385    -0.82400
C327        C  0.41482659  0.32882802  0.04709785     0.98600
C328        C  0.39474377  0.40513588  0.11103948     1.04500
O329        O  0.38091054  0.31786720  0.04855333    -0.78100
C330        C  0.38014988  0.40964767  0.95436598     1.02800
Fe331      Fe  0.33583837  0.45320693  0.74388350     1.65800
Fe332      Fe  0.35123423  0.36059885  0.74495874     1.73200
Fe333      Fe  0.38673933  0.41516167  0.67716738     1.54400
O334        O  0.34806614  0.45561269  0.65771459    -0.81800
O335        O  0.40580672  0.34328288  0.73910556    -0.80100
O336        O  0.30198181  0.45779056  0.69932408    -0.84300
O337        O  0.37149254  0.48950433  0.71788439    -0.79200
O338        O  0.35420857  0.37467765  0.64934611    -0.81000
O339        O  0.36647282  0.38416763  0.79496349    -0.83700
C340        C  0.40602644  0.48518868  0.71942979     0.97100
C341        C  0.31488749  0.46484423  0.66725900     1.04500
O342        O  0.35772084  0.40861140  0.72166249    -1.12700
O343        O  0.29504989  0.36982077  0.75280303    -0.75100
O344        O  0.29441065  0.42740503  0.77446870    -0.78600
O345        O  0.42013877  0.45536995  0.70585668    -0.79300
C346        C  0.27861795  0.39642279  0.76909479     0.96000
O347        O  0.37156758  0.44661679  0.78680858    -0.77300
O348        O  0.33616553  0.33644245  0.69573597    -0.82400
C349        C  0.43075354  0.34892581  0.71498872     0.98600
C350        C  0.33633924  0.34615951  0.66169781     1.04500
O351        O  0.42720326  0.37448860  0.69030615    -0.78100
C352        C  0.37744902  0.41665803  0.80514938     1.02800
Fe353      Fe  0.06179418  0.23166833  0.83756516     1.65800
Fe354      Fe  0.14898335  0.26055665  0.83634051     1.73200
Fe355      Fe  0.08629497  0.31034189  0.88311311     1.54400
O356        O  0.04829978  0.32731582  0.84384811    -0.81800
O357        O  0.17152362  0.28787400  0.88239400    -0.80100
O358        O  0.02232657  0.27330677  0.82605127    -0.84300
O359        O  0.04427901  0.22401096  0.89024907    -0.79200
O360        O  0.12746481  0.34405452  0.85583345    -0.81000
O361        O  0.15423143  0.21297742  0.86534401    -0.83700
C362        C  0.03080382  0.24787859  0.91204894     0.97100
C363        C  0.02376787  0.30910352  0.82592490     1.04500
O364        O  0.09863894  0.26704326  0.85311459    -1.12700
O365        O  0.13607115  0.22947337  0.78848984    -0.75100
O366        O  0.07533546  0.23486137  0.78255035    -0.78600
O367        O  0.04213105  0.28203456  0.91232636    -0.79300
C368        C  0.10632659  0.22477680  0.77000150     0.96000
O369        O  0.09933963  0.18835735  0.84827274    -0.77300
O370        O  0.14239034  0.30869494  0.80752410    -0.82400
C371        C  0.16049670  0.29210181  0.91574152     0.98600
C372        C  0.14395336  0.33954146  0.82452912     1.04500
O373        O  0.12589938  0.29496858  0.92328171    -0.78100
C374        C  0.13188528  0.18606161  0.86265281     1.02800
Fe375      Fe  0.09400796  0.98808775  0.80039198     1.65800
Fe376      Fe  0.09215818  0.96574792  0.88956288     1.73200
Fe377      Fe  0.14075615  0.91202454  0.83173876     1.54400
O378        O  0.10253321  0.89147480  0.79482486    -0.81800
O379        O  0.13907164  0.94150644  0.91503989    -0.80100
O380        O  0.08560445  0.94353328  0.76411898    -0.84300
O381        O  0.14708339  0.99573225  0.78495171    -0.79200
O382        O  0.11363467  0.88091303  0.87527342    -0.81000
O383        O  0.12043959  0.01367296  0.88996348    -0.83700
C384        C  0.16877404  0.97138335  0.77231628     0.97100
C385        C  0.08569611  0.90792017  0.76821272     1.04500
O386        O  0.10925131  0.95537878  0.84016751    -1.12700
O387        O  0.04353762  0.99449711  0.87291099    -0.75100
O388        O  0.03851237  0.98509591  0.81254445    -0.78600
O389        O  0.16955578  0.93777735  0.78547993    -0.79300
C390        C  0.02531112  0.99699679  0.84262639     0.96000
O391        O  0.10253129  0.03440625  0.83376786    -0.77300
O392        O  0.06458313  0.91670650  0.88792075    -0.82400
C393        C  0.17258802  0.93669446  0.90447435     0.98600
C394        C  0.08204508  0.88605346  0.89121835     1.04500
O395        O  0.18021341  0.93101648  0.87027703    -0.78100
C396        C  0.11902577  0.03843200  0.86497660     1.02800
Fe397      Fe  0.95054052  0.74068006  0.66906297     1.65800
Fe398      Fe  0.86123049  0.76548054  0.66811145     1.73200
Fe399      Fe  0.92227926  0.81925367  0.62378592     1.54400
O400        O  0.95949705  0.83730295  0.66259525    -0.81800
O401        O  0.83791158  0.79151535  0.62131930    -0.80100
O402        O  0.98749756  0.78408360  0.68065362    -0.84300
O403        O  0.96951352  0.73517414  0.61645333    -0.79200
O404        O  0.87974032  0.85126020  0.65159403    -0.81000
O405        O  0.86039178  0.71738306  0.63957964    -0.83700
C406        C  0.98092273  0.76004245  0.59441885     0.97100
C407        C  0.98543688  0.81986489  0.67943934     1.04500
O408        O  0.91185400  0.77492856  0.65342328    -1.12700
O409        O  0.87465064  0.73675949  0.71685134    -0.75100
O410        O  0.93559826  0.74062940  0.72430202    -0.78600
O411        O  0.96742796  0.79343399  0.59425932    -0.79300
C412        C  0.90375428  0.73226737  0.73638582     0.96000
O413        O  0.91627791  0.69565420  0.65784272    -0.77300
O414        O  0.86278358  0.81306921  0.69738853    -0.82400
C415        C  0.85024917  0.79736518  0.58872030     0.98600
C416        C  0.86312917  0.84512033  0.68262723     1.04500
O417        O  0.88477398  0.80257570  0.58310555    -0.78100
C418        C  0.88407773  0.69153321  0.64345689     1.02800
Fe419      Fe  0.91819918  0.48284983  0.70399193     1.65800
Fe420      Fe  0.91175558  0.46868429  0.61236574     1.73200
Fe421      Fe  0.86947381  0.40839728  0.67026952     1.54400
O422        O  0.90839650  0.38600107  0.70707838    -0.81800
O423        O  0.86410450  0.44638937  0.58783836    -0.80100
O424        O  0.93328676  0.43614008  0.73447210    -0.84300
O425        O  0.86823586  0.48529014  0.72907846    -0.79200
O426        O  0.89775753  0.37989613  0.62603443    -0.81000
O427        O  0.88369563  0.51669400  0.61901974    -0.83700
C428        C  0.84222088  0.46243283  0.73444493     0.97100
C429        C  0.92944108  0.40083950  0.73145588     1.04500
O430        O  0.89951215  0.45326851  0.66272998    -1.12700
O431        O  0.96125355  0.49569432  0.62586307    -0.75100
O432        O  0.97190835  0.48477180  0.68535859    -0.78600
O433        O  0.83899300  0.43189222  0.71590053    -0.79300
C434        C  0.98215980  0.49697124  0.65421797     0.96000
O435        O  0.90352293  0.53183544  0.67628658    -0.77300
O436        O  0.94034880  0.42064525  0.60578588    -0.82400
C437        C  0.83219773  0.43714457  0.59969126     0.98600
C438        C  0.92698522  0.38796732  0.60710234     1.04500
O439        O  0.82776162  0.42728521  0.63349689    -0.78100
C440        C  0.88758145  0.53952692  0.64540179     1.02800
Fe441      Fe  0.01214970  0.28985701  0.41874351     1.65800
Fe442      Fe  0.02867636  0.38040144  0.40676299     1.73200
Fe443      Fe  0.08368264  0.31827400  0.36437308     1.54400
O444        O  0.10696950  0.28290378  0.40402677    -0.81800
O445        O  0.04968808  0.40214876  0.35702301    -0.80100
O446        O  0.05717727  0.25496088  0.42805548    -0.84300
O447        O  0.00212211  0.26577291  0.36893785    -0.79200
O448        O  0.11437927  0.36403486  0.38787132    -0.81000
O449        O  0.98026629  0.37339230  0.38029050    -0.83700
C450        C  0.02430570  0.25585872  0.34371359     0.97100
C451        C  0.09215291  0.25747359  0.42393231     1.04500
O452        O  0.04171761  0.32900486  0.39627535    -1.12700
O453        O  0.00320037  0.36860560  0.45830216    -0.75100
O454        O  0.01901644  0.31017268  0.47152301    -0.78600
O455        O  0.05634571  0.27115924  0.33920158    -0.79300
C456        C  0.00435489  0.34090785  0.48074612     0.96000
O457        O  0.96422032  0.32154366  0.41147838    -0.77300
O458        O  0.07781581  0.38666724  0.43282352    -0.82400
C459        C  0.05709753  0.38854222  0.32525254     0.98600
C460        C  0.10870259  0.38513168  0.41629076     1.04500
O461        O  0.06424137  0.35367086  0.32161733    -0.78100
C462        C  0.95642712  0.35145661  0.39348719     1.02800
Fe463      Fe  0.74828543  0.32188162  0.45312079     1.65800
Fe464      Fe  0.73440809  0.33437015  0.36155229     1.73200
Fe465      Fe  0.67680013  0.37483804  0.42395854     1.54400
O466        O  0.66243130  0.33973365  0.46849653    -0.81800
O467        O  0.73058192  0.38960759  0.34571328    -0.80100
O468        O  0.70324834  0.29229818  0.47033691    -0.84300
O469        O  0.73520216  0.36258771  0.49111358    -0.79200
O470        O  0.64293910  0.34046067  0.38971258    -0.81000
O471        O  0.78818073  0.34434173  0.37462642    -0.83700
C472        C  0.72839900  0.39709457  0.48734617     0.97100
C473        C  0.67275490  0.30736624  0.48016481     1.04500
O474        O  0.71947590  0.34369456  0.41245175    -1.12700
O475        O  0.74001080  0.27737406  0.37014804    -0.75100
O476        O  0.76838992  0.27570581  0.42451631    -0.78600
O477        O  0.70954094  0.40937159  0.45956838    -0.79300
C478        C  0.75979140  0.26045695  0.39406354     0.96000
O479        O  0.79245417  0.35274261  0.43604952    -0.77300
O480        O  0.68203908  0.32377618  0.34434811    -0.82400
C481        C  0.70829675  0.41600431  0.35320308     0.98600
C482        C  0.65047700  0.32304732  0.35952428     1.04500
O483        O  0.68573591  0.41373188  0.38044195    -0.78100
C484        C  0.80529626  0.35548657  0.40333558     1.02800
Fe485      Fe  0.84254588  0.03077920  0.24863464     1.65800
Fe486      Fe  0.85542302  0.12269140  0.25311824     1.73200
Fe487      Fe  0.89162848  0.06778143  0.32037687     1.54400
O488        O  0.85200211  0.03298115  0.34325932    -0.81800
O489        O  0.90039744  0.14847261  0.27890065    -0.80100
O490        O  0.82286837  0.00591040  0.29584306    -0.84300
O491        O  0.88991990  0.00086295  0.25099718    -0.79200
O492        O  0.86059871  0.11390917  0.34323109    -0.81000
O493        O  0.88863073  0.10847316  0.21059871    -0.83700
C494        C  0.91794040  0.99841484  0.27187057     0.97100
C495        C  0.82765411  0.01086899  0.33035393     1.04500
O496        O  0.86372812  0.07320536  0.27440991    -1.12700
O497        O  0.80823587  0.10888047  0.22112918    -0.75100
O498        O  0.79111524  0.05464967  0.24417460    -0.78600
O499        O  0.92323575  0.02060009  0.29960670    -0.79300
C500        C  0.78412578  0.08331840  0.22505940     0.96000
O501        O  0.86215430  0.05279216  0.19899508    -0.77300
O502        O  0.82316510  0.13494404  0.29724143    -0.82400
C503        C  0.93068774  0.13731042  0.29332476     0.98600
C504        C  0.83278537  0.13371275  0.33126684     1.04500
O505        O  0.93457205  0.10340631  0.30375598    -0.78100
C506        C  0.88407069  0.07971817  0.19060266     1.02800
Fe507      Fe  0.81663375  0.06175431  0.99535807     1.65800
Fe508      Fe  0.90258162  0.06568129  0.96359795     1.73200
Fe509      Fe  0.83719787  0.11838851  0.92312887     1.54400
O510        O  0.79900732  0.08076588  0.90229077    -0.81800
O511        O  0.92354177  0.11685328  0.94343775    -0.80100
O512        O  0.77499466  0.05850658  0.95507513    -0.84300
O513        O  0.80032874  0.11369226  0.01180105    -0.79200
O514        O  0.87766812  0.09665239  0.88478477    -0.81000
O515        O  0.90892404  0.08669040  0.01486993    -0.83700
C516        C  0.78519861  0.13844420  0.99163737     0.97100
C517        C  0.77494135  0.06146940  0.91971290     1.04500
O518        O  0.85188237  0.08267818  0.96129156    -1.12700
O519        O  0.89072454  0.01275147  0.98642583    -0.75100
O520        O  0.82971755  0.00744223  0.98280438    -0.78600
O521        O  0.79415748  0.14269087  0.95727344    -0.79300
C522        C  0.86117592  0.99367110  0.99022778     0.96000
O523        O  0.85612759  0.06271812  0.03771039    -0.77300
O524        O  0.89490770  0.04380166  0.91275038    -0.82400
C525        C  0.91123617  0.15055052  0.94382462     0.98600
C526        C  0.89459740  0.06480733  0.88460691     1.04500
O527        O  0.87635199  0.15732953  0.94220071    -0.78100
C528        C  0.88878407  0.07620528  0.04149444     1.02800
C529        C  0.90540611  0.11298675  0.13484722    -0.21500
C530        C  0.90168299  0.07910284  0.15449856    -0.09500
C531        C  0.90662084  0.04474205  0.13636134     0.29400
C532        C  0.90720759  0.04417932  0.09798442    -0.21500
C533        C  0.90387289  0.07786003  0.07831138    -0.09500
C534        C  0.90641065  0.11236939  0.09633693     0.29400
F535        F  0.90425510  0.14508495  0.07696340    -0.20000
H536        H  0.90261420  0.13975401  0.14869379     0.17700
H537        H  0.90622495  0.01750083  0.08370072     0.17700
F538        F  0.90613612  0.01175577  0.15536029    -0.20000
C539        C  0.81035594  0.21186731  0.39840392    -0.21500
C540        C  0.77502739  0.22284933  0.38511569    -0.09500
C541        C  0.75661142  0.19953005  0.35974483     0.29400
C542        C  0.77440560  0.16778607  0.34575552    -0.21500
C543        C  0.81125731  0.15890259  0.35595401    -0.09500
C544        C  0.82855446  0.18029512  0.38374944     0.29400
F545        F  0.86423588  0.17311758  0.39391641    -0.20000
H546        H  0.82514437  0.22939381  0.41798901     0.17700
H547        H  0.76021218  0.15156790  0.32465199     0.17700
F548        F  0.72215899  0.20847448  0.34689773    -0.20000
C549        C  0.98393130  0.23010881  0.29386364    -0.21500
C550        C  0.01101067  0.22367929  0.32129778    -0.09500
C551        C  0.01417997  0.18719464  0.33636831     0.29400
C552        C  0.98978489  0.15847226  0.32534315    -0.21500
C553        C  0.96101332  0.16555537  0.29961974    -0.09500
C554        C  0.95933423  0.20160222  0.28300712     0.29400
F555        F  0.93246593  0.21021149  0.25779014    -0.20000
H556        H  0.97978612  0.25820389  0.28297143     0.17700
H557        H  0.99180119  0.13140000  0.33899072     0.17700
F558        F  0.03833554  0.18037012  0.36469242    -0.20000
C559        C  0.90310010  0.37535256  0.42603741    -0.21500
C560        C  0.91880421  0.36362343  0.39266325    -0.09500
C561        C  0.89771030  0.36053706  0.36041442     0.29400
C562        C  0.85953280  0.36360516  0.36304108    -0.21500
C563        C  0.84302751  0.36846221  0.39814605    -0.09500
C564        C  0.86497198  0.37789817  0.42898449     0.29400
F565        F  0.84987922  0.38557291  0.46264312    -0.20000
H566        H  0.92024244  0.37990322  0.45036981     0.17700
H567        H  0.84306582  0.35787174  0.33848194     0.17700
F568        F  0.91354838  0.35070098  0.32767764    -0.20000
C569        C  0.76624061  0.41936473  0.58165861    -0.21500
C570        C  0.80026208  0.43622529  0.57231917    -0.09500
C571        C  0.80438064  0.44948807  0.53535060     0.29400
C572        C  0.77735219  0.44184787  0.50798112    -0.21500
C573        C  0.74535119  0.42122730  0.51660140    -0.09500
C574        C  0.73920637  0.41195213  0.55425940     0.29400
F575        F  0.70852842  0.39219131  0.56390957    -0.20000
H576        H  0.76149673  0.40953846  0.60974000     0.17700
H577        H  0.78331894  0.44878734  0.47929286     0.17700
F578        F  0.83565975  0.46776910  0.52482349    -0.20000
C579        C  0.98478066  0.36102745  0.58181125    -0.21500
C580        C  0.94559739  0.36108181  0.58218276    -0.09500
C581        C  0.92652144  0.34806437  0.55067780     0.29400
C582        C  0.94625922  0.33928122  0.51827440    -0.21500
C583        C  0.98507839  0.34355910  0.51681576    -0.09500
C584        C  0.00440917  0.35250512  0.54938054     0.29400
F585        F  0.04194367  0.35592022  0.54901087    -0.20000
H586        H  0.00006368  0.37153098  0.60557879     0.17700
H587        H  0.93101772  0.33109399  0.49363561     0.17700
F588        F  0.88879545  0.34840506  0.54967794    -0.20000
C589        C  0.85314058  0.63540107  0.66304839    -0.21500
C590        C  0.87264630  0.65425204  0.63521131    -0.09500
C591        C  0.88977373  0.63487678  0.60630589     0.29400
C592        C  0.89093641  0.59609263  0.60772217    -0.21500
C593        C  0.87601800  0.57744792  0.63855759    -0.09500
C594        C  0.85539743  0.59674125  0.66519831     0.29400
F595        F  0.84051458  0.57858255  0.69480617    -0.20000
H596        H  0.84018469  0.65073188  0.68552594     0.17700
H597        H  0.90686107  0.58100345  0.58707112     0.17700
F598        F  0.90873519  0.65344529  0.57939497    -0.20000
C599        C  0.04054653  0.82446747  0.72159681    -0.21500
C600        C  0.01393784  0.84227982  0.69891317    -0.09500
C601        C  0.01405738  0.88176585  0.69626843     0.29400
C602        C  0.03875679  0.90270917  0.71754409    -0.21500
C603        C  0.06387584  0.88499892  0.74190714    -0.09500
C604        C  0.06531324  0.84548205  0.74288904     0.29400
F605        F  0.08994590  0.82697798  0.76504166    -0.20000
H606        H  0.04157884  0.79416962  0.72375837     0.17700
H607        H  0.03715303  0.93301596  0.71587382     0.17700
F608        F  0.98974908  0.90047352  0.67390233    -0.20000
C609        C  0.95582951  0.99656294  0.83964438    -0.21500
C610        C  0.98909841  0.01663097  0.84208340    -0.09500
C611        C  0.98763698  0.05583995  0.84607365     0.29400
C612        C  0.95359074  0.07398433  0.85225482    -0.21500
C613        C  0.92078120  0.05309247  0.85546178    -0.09500
C614        C  0.92181094  0.01464437  0.84617061     0.29400
F615        F  0.89059552  0.99356528  0.84903277    -0.20000
H616        H  0.95640370  0.96645912  0.83567949     0.17700
H617        H  0.95373633  0.10340447  0.85972694     0.17700
F618        F  0.01944167  0.07617966  0.84674488    -0.20000
C619        C  0.97515885  0.17426283  0.95913608    -0.21500
C620        C  0.93936080  0.18173502  0.94487454    -0.09500
C621        C  0.93285447  0.21742096  0.92889815     0.29400
C622        C  0.96252864  0.24281414  0.92358974    -0.21500
C623        C  0.99911513  0.23344769  0.93449431    -0.09500
C624        C  0.00446778  0.19965270  0.95422204     0.29400
F625        F  0.03923123  0.18910313  0.96482949    -0.20000
H626        H  0.98114710  0.14752399  0.97229417     0.17700
H627        H  0.95759380  0.26799773  0.90733730     0.17700
F628        F  0.89879551  0.22637778  0.91512296    -0.20000
C629        C  0.95492620  0.33775381  0.75034084    -0.21500
C630        C  0.95104063  0.37639117  0.75724717    -0.09500
C631        C  0.96929588  0.39172774  0.78837258     0.29400
C632        C  0.99166821  0.36925685  0.81104081    -0.21500
C633        C  0.99653405  0.33095026  0.80357263    -0.09500
C634        C  0.97745972  0.31517604  0.77319288     0.29400
F635        F  0.98183369  0.27842510  0.76446343    -0.20000
H636        H  0.94137547  0.32514531  0.72659946     0.17700
H637        H  0.00572119  0.38217520  0.83433277     0.17700
F638        F  0.96598843  0.42862295  0.79698479    -0.20000
C639        C  0.12849354  0.13256596  0.90403214    -0.21500
C640        C  0.14494662  0.14978426  0.87336325    -0.09500
C641        C  0.16302633  0.12877918  0.84614329     0.29400
C642        C  0.15774473  0.09045484  0.84550493    -0.21500
C643        C  0.13573738  0.07386441  0.87284289    -0.09500
C644        C  0.12437742  0.09398577  0.90414431     0.29400
F645        F  0.10428358  0.07741020  0.93148006    -0.20000
H646        H  0.11477344  0.14913315  0.92514170     0.17700
H647        H  0.16739377  0.07445177  0.82186437     0.17700
F648        F  0.17987495  0.14582065  0.81693170    -0.20000
C649        C  0.17950113  0.36356932  0.77112844    -0.21500
C650        C  0.17064207  0.36695105  0.80903368    -0.09500
C651        C  0.19505269  0.38694718  0.83226699     0.29400
C652        C  0.22950947  0.39919150  0.81850300    -0.21500
C653        C  0.24007052  0.39090073  0.78183939    -0.09500
C654        C  0.21410406  0.37453950  0.75785723     0.29400
F655        F  0.22298143  0.36725071  0.72200059    -0.20000
H656        H  0.16109709  0.34867221  0.75244919     0.17700
H657        H  0.24909111  0.41233783  0.83726056     0.17700
F658        F  0.18760578  0.39089816  0.86897057    -0.20000
C659        C  0.22524716  0.27920992  0.93840756    -0.21500
C660        C  0.18994967  0.29512444  0.94510791    -0.09500
C661        C  0.18537972  0.31691805  0.97733579     0.29400
C662        C  0.21607355  0.32454484  0.00055490    -0.21500
C663        C  0.25182785  0.31080041  0.99208709    -0.09500
C664        C  0.25581828  0.28723582  0.96125482     0.29400
F665        F  0.28993770  0.27427972  0.95159153    -0.20000
H666        H  0.22975513  0.26206983  0.91405300     0.17700
H667        H  0.21254522  0.34396856  0.02334731     0.17700
F668        F  0.15230796  0.33376044  0.98451233    -0.20000
C669        C  0.38786139  0.44985878  0.90074591    -0.21500
C670        C  0.39431295  0.41515875  0.91770115    -0.09500
C671        C  0.40746224  0.38465235  0.89745447     0.29400
C672        C  0.40768234  0.38711001  0.85904606    -0.21500
C673        C  0.39425567  0.41981424  0.84163032    -0.09500
C674        C  0.38806336  0.45247715  0.86247214     0.29400
F675        F  0.37632571  0.48500736  0.84642719    -0.20000
H676        H  0.37883711  0.47375503  0.91691966     0.17700
H677        H  0.41376097  0.36212906  0.84310896     0.17700
F678        F  0.41474905  0.35127347  0.91430873    -0.20000
C679        C  0.78423817  0.52965287  0.78696913    -0.21500
C680        C  0.79928051  0.52544404  0.82307454    -0.09500
C681        C  0.81986113  0.49251789  0.83067209     0.29400
C682        C  0.82867559  0.46726350  0.80185009    -0.21500
C683        C  0.81688355  0.47384821  0.76495681    -0.09500
C684        C  0.79284386  0.50432244  0.75841530     0.29400
F685        F  0.78145107  0.51226580  0.72324939    -0.20000
H686        H  0.76764287  0.55411093  0.78000177     0.17700
H687        H  0.84815687  0.44471485  0.80762159     0.17700
F688        F  0.83442403  0.48639820  0.86499077    -0.20000
C689        C  0.86761568  0.71435445  0.83227542    -0.21500
C690        C  0.86935390  0.67489769  0.83382317    -0.09500
C691        C  0.89007675  0.65576569  0.80682022     0.29400
C692        C  0.90503576  0.67552378  0.77658968    -0.21500
C693        C  0.89972385  0.71446976  0.77317315    -0.09500
C694        C  0.88273985  0.73404425  0.80223734     0.29400
F695        F  0.87809287  0.77179931  0.80002565    -0.20000
H696        H  0.85168576  0.72967126  0.85275107     0.17700
H697        H  0.91775203  0.65997660  0.75414849     0.17700
F698        F  0.89169073  0.61773021  0.80703201    -0.20000
C699        C  0.42230725  0.57775856  0.76623625    -0.21500
C700        C  0.43784560  0.56597006  0.80022264    -0.09500
C701        C  0.45150478  0.52864235  0.80258877     0.29400
C702        C  0.44594995  0.50310668  0.77338005    -0.21500
C703        C  0.42677643  0.51396800  0.74107094    -0.09500
C704        C  0.41669399  0.55213236  0.73712907     0.29400
F705        F  0.39836031  0.56392348  0.70616565    -0.20000
H706        H  0.41225753  0.60624797  0.76295636     0.17700
H707        H  0.45347308  0.47394543  0.77759528     0.17700
F708        F  0.46854999  0.51599848  0.83395534    -0.20000
C709        C  0.33598276  0.55677768  0.93661989    -0.21500
C710        C  0.35731309  0.58543748  0.95245193    -0.09500
C711        C  0.36370059  0.58433335  0.99126597     0.29400
C712        C  0.35676146  0.55155084  0.01164405    -0.21500
C713        C  0.34021612  0.52073721  0.99445397    -0.09500
C714        C  0.32684981  0.52484001  0.95771567     0.29400
F715        F  0.30944971  0.49586857  0.94067816    -0.20000
H716        H  0.33079316  0.55663774  0.90696191     0.17700
H717        H  0.36669373  0.54930600  0.04001089     0.17700
F718        F  0.38330357  0.61219155  0.00778658    -0.20000
C719        C  0.63611313  0.58595695  0.92014845    -0.21500
C720        C  0.65511922  0.60066540  0.88964971    -0.09500
C721        C  0.63592298  0.61277694  0.85776270     0.29400
C722        C  0.59753987  0.61539698  0.85874333    -0.21500
C723        C  0.57902070  0.60499548  0.89106369    -0.09500
C724        C  0.59773648  0.58783792  0.92075401     0.29400
F725        F  0.57918767  0.57686560  0.95173061    -0.20000
H726        H  0.65103846  0.57640070  0.94466733     0.17700
H727        H  0.58269504  0.62856633  0.83586760     0.17700
F728        F  0.65434020  0.62717364  0.82813293    -0.20000
C729        C  0.38440385  0.89988205  0.40186494    -0.21500
C730        C  0.41936282  0.91586949  0.39661464    -0.09500
C731        C  0.45162292  0.89401409  0.39787130     0.29400
C732        C  0.44850382  0.85543524  0.39902006    -0.21500
C733        C  0.41318889  0.83900075  0.39765631    -0.09500
C734        C  0.38114186  0.86109760  0.40233234     0.29400
F735        F  0.34668748  0.84571978  0.40192607    -0.20000
H736        H  0.35954544  0.91713673  0.40132645     0.17700
H737        H  0.47347195  0.83852262  0.39660844     0.17700
F738        F  0.48568675  0.90980149  0.39391708    -0.20000
C739        C  0.97535187  0.94540149  0.20477304    -0.21500
C740        C  0.95901995  0.90949828  0.20761251    -0.09500
C741        C  0.93812231  0.90183170  0.23984530     0.29400
C742        C  0.93056159  0.93035887  0.26588039    -0.21500
C743        C  0.94338520  0.96737069  0.26069044    -0.09500
C744        C  0.96757759  0.97387780  0.23073008     0.29400
F745        F  0.97970611  0.00920467  0.22372300    -0.20000
H746        H  0.99191270  0.95256368  0.18073671     0.17700
H747        H  0.91102063  0.92451684  0.28796332     0.17700
F748        F  0.92277348  0.86752107  0.24507152    -0.20000
C749        C  0.89036734  0.68843784  0.99187364    -0.21500
C750        C  0.85334823  0.68263009  0.00244654    -0.09500
C751        C  0.84000561  0.70045374  0.03467589     0.29400
C752        C  0.86318646  0.72403600  0.05526780    -0.21500
C753        C  0.89999918  0.73059513  0.04412914    -0.09500
C754        C  0.91343485  0.71213750  0.01223967     0.29400
F755        F  0.94894018  0.71673261  0.00051056    -0.20000
H756        H  0.90141299  0.67519676  0.96722815     0.17700
H757        H  0.85213581  0.73739334  0.07984130     0.17700
F758        F  0.80463527  0.69506121  0.04650148    -0.20000
C759        C  0.89306746  0.89642594  0.01646115    -0.21500
C760        C  0.88329463  0.89550455  0.05432579    -0.09500
C761        C  0.85966647  0.92344066  0.06817414     0.29400
C762        C  0.84943689  0.95385698  0.04545362    -0.21500
C763        C  0.86314848  0.95691718  0.00899627    -0.09500
C764        C  0.88354989  0.92715866  0.99402930     0.29400
F765        F  0.89650808  0.92907263  0.95871599    -0.20000
H766        H  0.91170870  0.87534729  0.00542444     0.17700
H767        H  0.83378675  0.97677637  0.05744876     0.17700
F768        F  0.85044087  0.92381212  0.10468817    -0.20000
C769        C  0.02775559  0.86238510  0.92582313    -0.21500
C770        C  0.06613075  0.85947286  0.91867737    -0.09500
C771        C  0.08878235  0.84067227  0.94481175     0.29400
C772        C  0.07379925  0.82911142  0.97907449    -0.21500
C773        C  0.03639149  0.83679234  0.98772076    -0.09500
C774        C  0.01317058  0.85191026  0.96013206     0.29400
F775        F  0.97664334  0.85833367  0.96704320    -0.20000
H776        H  0.00950051  0.87632643  0.90607715     0.17700
H777        H  0.09203647  0.81688074  0.99988825     0.17700
F778        F  0.12587839  0.83711683  0.93903595    -0.20000
C779        C  0.22092789  0.94976637  0.99809451    -0.21500
C780        C  0.24931234  0.92262380  0.99697877    -0.09500
C781        C  0.25565853  0.90415057  0.96292815     0.29400
C782        C  0.23248350  0.91071380  0.93183817    -0.21500
C783        C  0.20230846  0.93577691  0.93393455    -0.09500
C784        C  0.19816944  0.95678875  0.96687662     0.29400
F785        F  0.17096548  0.98313465  0.96944749    -0.20000
H786        H  0.21494604  0.96404107  0.02389402     0.17700
H787        H  0.23653310  0.89413924  0.90703588     0.17700
F788        F  0.28196289  0.87690879  0.96074888    -0.20000
C789        C  0.30745915  0.92824732  0.23054294    -0.21500
C790        C  0.31001533  0.93976226  0.19306175    -0.09500
C791        C  0.32108769  0.97720458  0.18621348     0.29400
C792        C  0.33195742  0.00094344  0.21578502    -0.21500
C793        C  0.33219111  0.98803880  0.25284602    -0.09500
C794        C  0.31865654  0.95165775  0.25978642     0.29400
F795        F  0.31881932  0.93762615  0.29492423    -0.20000
H796        H  0.29878587  0.90000795  0.23738988     0.17700
H797        H  0.34312549  0.02836686  0.20935482     0.17700
F798        F  0.32391193  0.99020014  0.15088110    -0.20000
C799        C  0.39305563  0.80289333  0.00111360    -0.21500
C800        C  0.35404622  0.80315722  0.99962459    -0.09500
C801        C  0.33600457  0.77797375  0.97546565     0.29400
C802        C  0.35663617  0.75310930  0.95377687    -0.21500
C803        C  0.39565606  0.75239226  0.95571011    -0.09500
C804        C  0.41368638  0.77784159  0.97960509     0.29400
F805        F  0.45126007  0.77816663  0.98299430    -0.20000
H806        H  0.40776580  0.82160152  0.01961838     0.17700
H807        H  0.34182902  0.73375974  0.93601564     0.17700
F808        F  0.29835532  0.77611721  0.97371949    -0.20000
C809        C  0.37524121  0.83904409  0.21443083    -0.21500
C810        C  0.38639427  0.82202833  0.18112143    -0.09500
C811        C  0.40643363  0.78818522  0.18300508     0.29400
C812        C  0.41228318  0.77020822  0.21722544    -0.21500
C813        C  0.39731199  0.78513301  0.25004546    -0.09500
C814        C  0.37995097  0.82055226  0.24854796     0.29400
F815        F  0.36661129  0.83682861  0.27984221    -0.20000
H816        H  0.35956470  0.86499272  0.21377874     0.17700
H817        H  0.42662305  0.74343207  0.21774579     0.17700
F818        F  0.41754093  0.77099762  0.15135653    -0.20000
C819        C  0.14844439  0.86184868  0.15268080    -0.21500
C820        C  0.17008839  0.82997984  0.14702327    -0.09500
C821        C  0.15420482  0.79423791  0.14698753     0.29400
C822        C  0.11593300  0.79088528  0.14594557    -0.21500
C823        C  0.09397462  0.82339621  0.14442681    -0.09500
C824        C  0.11006776  0.85859619  0.15196126     0.29400
F825        F  0.08915333  0.89030042  0.15399498    -0.20000
H826        H  0.16101285  0.88940185  0.15361736     0.17700
H827        H  0.10404184  0.76336033  0.14166699     0.17700
F828        F  0.17565791  0.76309143  0.14338375    -0.20000
C829        C  0.51656370  0.81625995  0.82665801    -0.21500
C830        C  0.55117814  0.80732332  0.81060472    -0.09500
C831        C  0.55673549  0.76988703  0.79893306     0.29400
C832        C  0.53023937  0.74199228  0.80646885    -0.21500
C833        C  0.49724344  0.75019846  0.82563480    -0.09500
C834        C  0.49003347  0.78810774  0.83428692     0.29400
F835        F  0.45924569  0.79729206  0.85397394    -0.20000
H836        H  0.51105032  0.84463160  0.83583526     0.17700
H837        H  0.53716432  0.71305850  0.80033128     0.17700
F838        F  0.58883066  0.75952425  0.78208966    -0.20000
C839        C  0.70299574  0.98870897  0.89352709    -0.21500
C840        C  0.69643485  0.99666322  0.85579913    -0.09500
C841        C  0.71451732  0.02772411  0.83961499     0.29400
C842        C  0.73920287  0.04942068  0.86071463    -0.21500
C843        C  0.74636692  0.04067799  0.89824292    -0.09500
C844        C  0.72767905  0.01011304  0.91442373     0.29400
F845        F  0.73461505  0.99939798  0.95001211    -0.20000
H846        H  0.69002253  0.96484904  0.90682618     0.17700
H847        H  0.75318573  0.07272373  0.84747442     0.17700
F848        F  0.70907169  0.03680588  0.80333007    -0.20000
C849        C  0.65888261  0.78273865  0.88347866    -0.21500
C850        C  0.67962216  0.81575171  0.88767735    -0.09500
C851        C  0.71666780  0.81306279  0.90012704     0.29400
C852        C  0.73343866  0.77795677  0.90514877    -0.21500
C853        C  0.71392522  0.74513715  0.89662751    -0.09500
C854        C  0.67604544  0.74760380  0.88723170     0.29400
F855        F  0.65602005  0.71614813  0.88046363    -0.20000
H856        H  0.63061247  0.78407732  0.87306621     0.17700
H857        H  0.76244125  0.77646428  0.91322556     0.17700
F858        F  0.73779123  0.84436428  0.90329610    -0.20000
C859        C  0.77599462  0.89747740  0.70126738    -0.21500
C860        C  0.77245311  0.88935140  0.73939052    -0.09500
C861        C  0.80362773  0.87697560  0.75930280     0.29400
C862        C  0.83692308  0.86977416  0.74067542    -0.21500
C863        C  0.83904471  0.87269456  0.70160090    -0.09500
C864        C  0.80900267  0.88897740  0.68230702     0.29400
F865        F  0.80963145  0.89180837  0.64470218    -0.20000
H866        H  0.75213487  0.90742814  0.68557936     0.17700
H867        H  0.85961808  0.85707454  0.75618169     0.17700
F868        F  0.80110914  0.86919111  0.79613916    -0.20000
C869        C  0.75950444  0.79609482  0.53297704    -0.21500
C870        C  0.76953722  0.81618526  0.50099832    -0.09500
C871        C  0.80723561  0.82564559  0.49613586     0.29400
C872        C  0.83370918  0.81726213  0.52361996    -0.21500
C873        C  0.82318364  0.80012928  0.55715046    -0.09500
C874        C  0.78586770  0.78830889  0.56092503     0.29400
F875        F  0.77420021  0.77116649  0.59250990    -0.20000
H876        H  0.73054236  0.78973015  0.53807541     0.17700
H877        H  0.86201093  0.82666384  0.51966783     0.17700
F878        F  0.81777601  0.84650602  0.46636490    -0.20000
C879        C  0.54716520  0.78341141  0.47774452    -0.21500
C880        C  0.58159081  0.78351991  0.45891769    -0.09500
C881        C  0.58828419  0.75459622  0.43320488     0.29400
C882        C  0.55990263  0.72935843  0.42368244    -0.21500
C883        C  0.52421562  0.73202102  0.43949661    -0.09500
C884        C  0.51875018  0.75821420  0.46798851     0.29400
F885        F  0.48453799  0.76255984  0.48314023    -0.20000
H886        H  0.54093331  0.80492039  0.49795630     0.17700
H887        H  0.56466267  0.71008410  0.40097849     0.17700
F888        F  0.62118598  0.75238820  0.41501608    -0.20000
C889        C  0.77498357  0.98158346  0.41684263    -0.21500
C890        C  0.75304806  0.95228911  0.40286303    -0.09500
C891        C  0.75592194  0.94262362  0.36519142     0.29400
C892        C  0.78063488  0.96147515  0.34221279    -0.21500
C893        C  0.80301319  0.99045111  0.35610342    -0.09500
C894        C  0.79983237  0.00054465  0.39375344     0.29400
F895        F  0.82015752  0.02900007  0.40823597    -0.20000
H896        H  0.77332374  0.98948328  0.44579122     0.17700
H897        H  0.78211345  0.95329003  0.31333648     0.17700
F898        F  0.73455135  0.91520403  0.35025689    -0.20000
C899        C  0.59098494  0.97742052  0.40068762    -0.21500
C900        C  0.59532779  0.94152522  0.38525009    -0.09500
C901        C  0.57492612  0.93209429  0.35342225     0.29400
C902        C  0.54739464  0.95684933  0.34011817    -0.21500
C903        C  0.53960945  0.99048703  0.35912499    -0.09500
C904        C  0.56299671  0.00147715  0.38825067     0.29400
F905        F  0.55622644  0.03359551  0.40722923    -0.20000
H906        H  0.60657109  0.98510751  0.42532596     0.17700
H907        H  0.52931886  0.94769078  0.31782002     0.17700
F908        F  0.57842764  0.89754735  0.33812847    -0.20000
C909        C  0.62525697  0.84615982  0.61224813    -0.21500
C910        C  0.66038725  0.85201662  0.59616091    -0.09500
C911        C  0.69272213  0.84719221  0.61771587     0.29400
C912        C  0.68942553  0.84476163  0.65586325    -0.21500
C913        C  0.65425295  0.84693199  0.67195123    -0.09500
C914        C  0.62214317  0.84398834  0.65052825     0.29400
F915        F  0.58804577  0.84450376  0.66653584    -0.20000
H916        H  0.60001686  0.84788689  0.59582276     0.17700
H917        H  0.71427750  0.84585036  0.67293548     0.17700
F918        F  0.72725067  0.85018691  0.60292616    -0.20000
C919        C  0.51386034  0.28977070  0.05471765    -0.21500
C920        C  0.50840044  0.25294100  0.06773971    -0.09500
C921        C  0.47167537  0.23911294  0.06775966     0.29400
C922        C  0.44125338  0.26289801  0.05863442    -0.21500
C923        C  0.44670192  0.30093074  0.04889749    -0.09500
C924        C  0.48383520  0.31320509  0.04501673     0.29400
F925        F  0.49143718  0.34879291  0.03393044    -0.20000
H926        H  0.54163252  0.30138498  0.05428586     0.17700
H927        H  0.41332400  0.25211350  0.06146216     0.17700
F928        F  0.46480718  0.20379025  0.08002554    -0.20000
C929        C  0.76166699  0.17823627  0.04356205    -0.21500
C930        C  0.75446056  0.15980993  0.00984637    -0.09500
C931        C  0.71711009  0.15191544  0.00090997     0.29400
C932        C  0.68805758  0.16153723  0.02546263    -0.21500
C933        C  0.69547970  0.17843622  0.06004522    -0.09500
C934        C  0.73284428  0.18755742  0.06822044     0.29400
F935        F  0.74193823  0.20411400  0.10088089    -0.20000
H936        H  0.79014708  0.18336573  0.05195340     0.17700
H937        H  0.65992972  0.15341868  0.01845002     0.17700
F938        F  0.70904089  0.13132778  0.97032107    -0.20000
C939        C  0.47624012  0.16286694  0.22013985    -0.21500
C940        C  0.49823625  0.14451645  0.19349059    -0.09500
C941        C  0.49636230  0.10505668  0.19144803     0.29400
C942        C  0.47423578  0.08472516  0.21618281    -0.21500
C943        C  0.45336481  0.10287999  0.24381657    -0.09500
C944        C  0.45414834  0.14242991  0.24505873     0.29400
F945        F  0.43470512  0.16152528  0.27114445    -0.20000
H946        H  0.47715302  0.19307759  0.22271352     0.17700
H947        H  0.47431887  0.05444867  0.21419452     0.17700
F948        F  0.51670886  0.08567772  0.16624096    -0.20000
C949        C  0.70770890  0.10382486  0.15477119    -0.21500
C950        C  0.67581933  0.09991858  0.17690811    -0.09500
C951        C  0.67980718  0.08528859  0.21305876     0.29400
C952        C  0.71516083  0.07816614  0.22784748    -0.21500
C953        C  0.74713950  0.08659878  0.20727434    -0.09500
C954        C  0.74319808  0.09786771  0.16999442     0.29400
F955        F  0.77361357  0.10424989  0.14872230    -0.20000
H956        H  0.70547415  0.11525445  0.12693378     0.17700
H957        H  0.71760340  0.06858610  0.25635810     0.17700
F958        F  0.64965666  0.08152583  0.23530112    -0.20000
C959        C  0.59265972  0.29001420  0.28108544    -0.21500
C960        C  0.60702521  0.25330172  0.27779013    -0.09500
C961        C  0.62670244  0.23783837  0.30786519     0.29400
C962        C  0.63436603  0.25978027  0.33920811    -0.21500
C963        C  0.62412661  0.29800440  0.34042549    -0.09500
C964        C  0.60164831  0.31243669  0.31180918     0.29400
F965        F  0.59270839  0.34945734  0.31112801    -0.20000
H966        H  0.57771412  0.30271419  0.25804635     0.17700
H967        H  0.65257787  0.24829017  0.36047290     0.17700
F968        F  0.64072369  0.20251922  0.30586931    -0.20000
C969        C  0.71647131  0.47462237  0.26470033    -0.21500
C970        C  0.69133379  0.50389575  0.27162991    -0.09500
C971        C  0.67859113  0.50855410  0.30831835     0.29400
C972        C  0.68624880  0.48135118  0.33576703    -0.21500
C973        C  0.70744155  0.44926854  0.32742199    -0.09500
C974        C  0.72446525  0.44755607  0.29202857     0.29400
F975        F  0.74560008  0.41762882  0.28211713    -0.20000
H976        H  0.72590567  0.46968343  0.23658464     0.17700
H977        H  0.67328968  0.48407278  0.36271806     0.17700
F978        F  0.65396083  0.53634470  0.31607354    -0.20000
C979        C  0.73486196  0.56351482  0.08296468    -0.21500
C980        C  0.70631575  0.53711829  0.07850175    -0.09500
C981        C  0.70629818  0.51543163  0.04555784     0.29400
C982        C  0.73135007  0.52302402  0.01657601    -0.21500
C983        C  0.75753734  0.55187579  0.01965496    -0.09500
C984        C  0.76003701  0.57089405  0.05395541     0.29400
F985        F  0.78372434  0.60021900  0.05756390    -0.20000
H986        H  0.73597442  0.58057195  0.10775874     0.17700
H987        H  0.72780682  0.50877161  0.99028865     0.17700
F988        F  0.68048675  0.48830707  0.04016668    -0.20000
C989        C  0.55551916  0.62711260  0.26297100    -0.21500
C990        C  0.54863312  0.58854676  0.26066074    -0.09500
C991        C  0.52005901  0.57304836  0.28278874     0.29400
C992        C  0.49852686  0.59602236  0.30578565    -0.21500
C993        C  0.50491985  0.63475819  0.30723855    -0.09500
C994        C  0.53420503  0.64994421  0.28598472     0.29400
F995        F  0.54264084  0.68699479  0.28749589    -0.20000
H996        H  0.57762795  0.63979482  0.24697481     0.17700
H997        H  0.47631899  0.58358210  0.32183530     0.17700
F998        F  0.51227567  0.53583728  0.28182443    -0.20000
C999        C  0.56426440  0.62417066  0.06724804    -0.21500
C1000       C  0.54918399  0.59387917  0.08707377    -0.09500
C1001       C  0.51329974  0.58106850  0.07750835     0.29400
C1002       C  0.49496044  0.59532002  0.04633592    -0.21500
C1003       C  0.51144481  0.62319613  0.02468337    -0.09500
C1004       C  0.54545724  0.63885358  0.03615138     0.29400
F1005       F  0.56227678  0.66546507  0.01509046    -0.20000
H1006       H  0.59193005  0.63414708  0.07368960     0.17700
H1007       H  0.46873666  0.58310687  0.03788566     0.17700
F1008       F  0.49723405  0.55242376  0.09648018    -0.20000
C1009       C  0.66422233  0.33778603  0.12669196    -0.21500
C1010       C  0.66245668  0.31838072  0.16027827    -0.09500
C1011       C  0.66511077  0.33717324  0.19418026     0.29400
C1012       C  0.66135987  0.37578766  0.19452116    -0.21500
C1013       C  0.65529689  0.39485128  0.16095331    -0.09500
C1014       C  0.66099352  0.37649372  0.12688663     0.29400
F1015       F  0.65698068  0.39470186  0.09389745    -0.20000
H1016       H  0.66264342  0.32294482  0.10052872     0.17700
H1017       H  0.65848236  0.39000010  0.22091366     0.17700
F1018       F  0.66472630  0.31790726  0.22681555    -0.20000
C1019       C  0.49259562  0.40593701  0.14370352    -0.21500
C1020       C  0.49572791  0.44361875  0.15421903    -0.09500
C1021       C  0.46351072  0.46539694  0.15862918     0.29400
C1022       C  0.42888783  0.45056612  0.14938193    -0.21500
C1023       C  0.42588218  0.41374809  0.13600367    -0.09500
C1024       C  0.45778782  0.39081231  0.13517542     0.29400
F1025       F  0.45601074  0.35525921  0.12200800    -0.20000
H1026       H  0.51725089  0.38867978  0.14076096     0.17700
H1027       H  0.40481318  0.46892269  0.14939211     0.17700
F1028       F  0.46589935  0.50206786  0.16832958    -0.20000
C1029       C  0.49290080  0.32904560  0.68891585    -0.21500
C1030       C  0.46370495  0.32278191  0.71402318    -0.09500
C1031       C  0.46385006  0.28848587  0.73409538     0.29400
C1032       C  0.48943804  0.25986297  0.72550128    -0.21500
C1033       C  0.51584265  0.26472121  0.69730241    -0.09500
C1034       C  0.51872062  0.30056913  0.68080308     0.29400
F1035       F  0.54295460  0.30616188  0.65251303    -0.20000
H1036       H  0.49408418  0.35501548  0.67322006     0.17700
H1037       H  0.48571738  0.23236396  0.73787359     0.17700
F1038       F  0.43692611  0.28083786  0.75928367    -0.20000
C1039       C  0.53540954  0.03030905  0.70769350    -0.21500
C1040       C  0.55458215  0.06457158  0.71155220    -0.09500
C1041       C  0.58093952  0.06741234  0.74047451     0.29400
C1042       C  0.58977781  0.03584228  0.76263635    -0.21500
C1043       C  0.57252868  0.00093834  0.75661393    -0.09500
C1044       C  0.54443695  0.99889206  0.72959799     0.29400
F1045       F  0.52758364  0.96568460  0.72250984    -0.20000
H1046       H  0.51466328  0.02708779  0.68607552     0.17700
H1047       H  0.61240409  0.03785469  0.78246779     0.17700
F1048       F  0.60052385  0.09949445  0.74524865    -0.20000
C1049       C  0.59278342  0.28116250  0.54337163    -0.21500
C1050       C  0.60601609  0.24761372  0.55930622    -0.09500
C1051       C  0.64135888  0.23420016  0.54931513     0.29400
C1052       C  0.66264534  0.25377195  0.52352985    -0.21500
C1053       C  0.64930572  0.28710529  0.50716926    -0.09500
C1054       C  0.61414082  0.30085787  0.51765084     0.29400
F1055       F  0.60002515  0.33300322  0.50286296    -0.20000
H1056       H  0.56562204  0.29207115  0.55058548     0.17700
H1057       H  0.68964597  0.24253474  0.51624812     0.17700
F1058       F  0.65488780  0.20142972  0.56327479    -0.20000
C1059       C  0.63550964  0.05003574  0.58828428    -0.21500
C1060       C  0.61386518  0.07496484  0.56701293    -0.09500
C1061       C  0.60809713  0.06740049  0.52901988     0.29400
C1062       C  0.62030120  0.03365239  0.51376829    -0.21500
C1063       C  0.63916298  0.00727896  0.53582019    -0.09500
C1064       C  0.64815064  0.01634115  0.57282885     0.29400
F1065       F  0.66592575  0.99110833  0.59503153    -0.20000
H1066       H  0.63961362  0.05488249  0.61770604     0.17700
H1067       H  0.61376168  0.02747785  0.48503625     0.17700
F1068       F  0.58795789  0.09135055  0.50740219    -0.20000
C1069       C  0.48448282  0.15868880  0.46787365    -0.21500
C1070       C  0.46386182  0.14930055  0.49956488    -0.09500
C1071       C  0.42709754  0.13680190  0.49505633     0.29400
C1072       C  0.41243981  0.13095726  0.45935436    -0.21500
C1073       C  0.43459821  0.13622763  0.42767043    -0.09500
C1074       C  0.47032777  0.15159258  0.43227398     0.29400
F1075       F  0.49298739  0.15595254  0.40252009    -0.20000
H1076       H  0.51268661  0.16884071  0.47072812     0.17700
H1077       H  0.38521297  0.11835159  0.45674799     0.17700
F1078       F  0.40588166  0.12885716  0.52516255    -0.20000
C1079       C  0.25487929  0.06857864  0.46024037    -0.21500
C1080       C  0.26522953  0.05963664  0.49703069    -0.09500
C1081       C  0.29988255  0.04214042  0.50289225     0.29400
C1082       C  0.32477186  0.03701744  0.47347391    -0.21500
C1083       C  0.31609007  0.04921367  0.43715916    -0.09500
C1084       C  0.27994042  0.06337378  0.43051673     0.29400
F1085       F  0.26990995  0.07529931  0.39606353    -0.20000
H1086       H  0.22882384  0.08299796  0.45496066     0.17700
H1087       H  0.35192507  0.02530678  0.47968401     0.17700
F1088       F  0.31112803  0.03318274  0.53787953    -0.20000
C1089       C  0.17396848  0.97884220  0.70396669    -0.21500
C1090       C  0.18995136  0.98458355  0.73932822    -0.09500
C1091       C  0.21323590  0.01593561  0.74377074     0.29400
C1092       C  0.21757900  0.04233362  0.71498307    -0.21500
C1093       C  0.19913545  0.03822399  0.68068599    -0.09500
C1094       C  0.17846762  0.00521841  0.67494168     0.29400
F1095       F  0.15933805  0.00039292  0.64276368    -0.20000
H1096       H  0.15444850  0.95610255  0.70006004     0.17700
H1097       H  0.23393367  0.06722105  0.72027564     0.17700
F1098       F  0.22822697  0.02338195  0.77758075    -0.20000
C1099       C  0.15485603  0.23534444  0.44615296    -0.21500
C1100       C  0.11617494  0.23004446  0.44397322    -0.09500
C1101       C  0.10048176  0.19920952  0.46279156     0.29400
C1102       C  0.12255278  0.17603571  0.48504568    -0.21500
C1103       C  0.16079325  0.18269740  0.48918787    -0.09500
C1104       C  0.17705378  0.21189789  0.46844343     0.29400
F1105       F  0.21397310  0.21911697  0.47105339    -0.20000
H1106       H  0.16783327  0.25849736  0.43167953     0.17700
H1107       H  0.10926793  0.15336931  0.50000579     0.17700
F1108       F  0.06356405  0.19173652  0.46063948    -0.20000
C1109       C  0.11884010  0.14824739  0.69869285    -0.21500
C1110       C  0.11703140  0.16875709  0.66535406    -0.09500
C1111       C  0.10591128  0.20672786  0.66669120     0.29400
C1112       C  0.10083675  0.22464681  0.70087487    -0.21500
C1113       C  0.10735679  0.20512279  0.73409585    -0.09500
C1114       C  0.11463670  0.16638611  0.73287170     0.29400
F1115       F  0.11955947  0.14649020  0.76474213    -0.20000
H1116       H  0.12816655  0.11932039  0.69856481     0.17700
H1117       H  0.09434648  0.25432678  0.70139859     0.17700
F1118       F  0.10470583  0.22762408  0.63508918    -0.20000
C1119       C  0.35077662  0.17602393  0.65737708    -0.21500
C1120       C  0.33423535  0.14091454  0.65353237    -0.09500
C1121       C  0.35482244  0.10791798  0.65744732     0.29400
C1122       C  0.39326246  0.11030226  0.65811857    -0.21500
C1123       C  0.41006271  0.14559951  0.65411828    -0.09500
C1124       C  0.38900068  0.17850563  0.65787671     0.29400
F1125       F  0.40502743  0.21291437  0.65636081    -0.20000
H1126       H  0.33435963  0.20152231  0.65511560     0.17700
H1127       H  0.40940104  0.08466278  0.65633285     0.17700
F1128       F  0.33824562  0.07387421  0.65490974    -0.20000
C1129       C  0.27541243  0.31755875  0.64932495    -0.21500
C1130       C  0.31212604  0.32338591  0.63739877    -0.09500
C1131       C  0.32625881  0.30102165  0.60868544     0.29400
C1132       C  0.30497715  0.27104714  0.59482693    -0.21500
C1133       C  0.26969243  0.26300254  0.60981097    -0.09500
C1134       C  0.25444913  0.28764592  0.63588805     0.29400
F1135       F  0.22029420  0.28114173  0.65039636    -0.20000
H1136       H  0.26401229  0.33451564  0.67141381     0.17700
H1137       H  0.31744799  0.25208814  0.57499076     0.17700
F1138       F  0.36174323  0.30559002  0.59691566    -0.20000
C1139       C  0.05107344  0.47937906  0.26866413    -0.21500
C1140       C  0.07769692  0.47346814  0.24083430    -0.09500
C1141       C  0.09228374  0.43683022  0.23700917     0.29400
C1142       C  0.08308663  0.40810929  0.26249904    -0.21500
C1143       C  0.05943916  0.41529186  0.29274628    -0.09500
C1144       C  0.04180218  0.45078997  0.29405747     0.29400
F1145       F  0.01734324  0.45885490  0.32152317    -0.20000
H1146       H  0.04008398  0.50733086  0.27307413     0.17700
H1147       H  0.09704376  0.38124570  0.26038055     0.17700
F1148       F  0.11911665  0.43005260  0.21146669    -0.20000
C1149       C  0.99304598  0.67964128  0.17439534    -0.21500
C1150       C  0.99828254  0.71809247  0.18162300    -0.09500
C1151       C  0.03201247  0.72912958  0.19794601     0.29400
C1152       C  0.06092257  0.70294124  0.20329855    -0.21500
C1153       C  0.05691504  0.66501471  0.19273970    -0.09500
C1154       C  0.02177220  0.65336269  0.17994332     0.29400
F1155       F  0.01585607  0.61719779  0.17000306    -0.20000
H1156       H  0.96765895  0.67044942  0.16100484     0.17700
H1157       H  0.08726936  0.71295385  0.21390948     0.17700
F1158       F  0.03866429  0.76594466  0.20459173    -0.20000
C1159       C  0.25768897  0.43086286  0.14258433    -0.21500
C1160       C  0.24964678  0.42720627  0.10448056    -0.09500
C1161       C  0.22037366  0.44861802  0.08912170     0.29400
C1162       C  0.20038584  0.47350387  0.11128687    -0.21500
C1163       C  0.20914825  0.47792257  0.14911784    -0.09500
C1164       C  0.23785305  0.45596792  0.16468206     0.29400
F1165       F  0.24790612  0.45970172  0.20085515    -0.20000
H1166       H  0.28033225  0.41523814  0.15520851     0.17700
H1167       H  0.17828451  0.48979884  0.09852272     0.17700
F1168       F  0.21163567  0.44659422  0.05246950    -0.20000
C1169       C  0.19132056  0.67793815  0.09787758    -0.21500
C1170       C  0.20927243  0.65113943  0.12035730    -0.09500
C1171       C  0.24783404  0.65530038  0.12703921     0.29400
C1172       C  0.26603509  0.68857907  0.11753858    -0.21500
C1173       C  0.24684036  0.71732289  0.09913869    -0.09500
C1174       C  0.21019379  0.71061380  0.08676645     0.29400
F1175       F  0.19108156  0.73781924  0.06825673    -0.20000
H1176       H  0.16174592  0.67583707  0.09263475     0.17700
H1177       H  0.29435528  0.69292037  0.12683536     0.17700
F1178       F  0.26657246  0.62942046  0.14770549    -0.20000
C1179       C  0.31399478  0.60199845  0.33258131    -0.21500
C1180       C  0.33591899  0.62964758  0.31562637    -0.09500
C1181       C  0.32985591  0.63833818  0.27785328     0.29400
C1182       C  0.29946530  0.62347730  0.25896217    -0.21500
C1183       C  0.27530833  0.59886190  0.27698353    -0.09500
C1184       C  0.28378695  0.58647904  0.31324564     0.29400
F1185       F  0.26068084  0.56254157  0.33120976    -0.20000
H1186       H  0.31800721  0.59509776  0.36164983     0.17700
H1187       H  0.29341556  0.63305016  0.23097024     0.17700
F1188       F  0.35139673  0.66400537  0.26023070    -0.20000
C1189       C  0.29518498  0.71614198  0.46700193    -0.21500
C1190       C  0.32810347  0.69438525  0.46771237    -0.09500
C1191       C  0.33125122  0.66633888  0.49530167     0.29400
C1192       C  0.30068100  0.65771593  0.51827015    -0.21500
C1193       C  0.26650782  0.67693258  0.51452087    -0.09500
C1194       C  0.26482200  0.70747244  0.48985233     0.29400
F1195       F  0.23234913  0.72638878  0.48497657    -0.20000
H1196       H  0.29181021  0.73843326  0.44670438     0.17700
H1197       H  0.30248873  0.63333530  0.53629073     0.17700
F1198       F  0.36230764  0.64474302  0.49763196    -0.20000
C1199       C  0.07806807  0.72743994  0.57795592    -0.21500
C1200       C  0.07159175  0.69635745  0.55488295    -0.09500
C1201       C  0.03659770  0.69396413  0.53705122     0.29400
C1202       C  0.00787051  0.71933952  0.54553724    -0.21500
C1203       C  0.01318620  0.74810622  0.57154081    -0.09500
C1204       C  0.04923130  0.75292021  0.58631914     0.29400
F1205       F  0.05531947  0.77937691  0.61262638    -0.20000
H1206       H  0.10456620  0.73035141  0.59198873     0.17700
H1207       H  0.98033107  0.71428293  0.53441378     0.17700
F1208       F  0.02924593  0.66563419  0.51307753    -0.20000
C1209       C  0.23441094  0.52127805  0.62954380    -0.21500
C1210       C  0.25077462  0.53926686  0.59905765    -0.09500
C1211       C  0.28741812  0.53019712  0.58911219     0.29400
C1212       C  0.30777188  0.50458296  0.61050792    -0.21500
C1213       C  0.29177202  0.48754493  0.64185258    -0.09500
C1214       C  0.25445985  0.49553597  0.65066668     0.29400
F1215       F  0.23730817  0.47906546  0.68002793    -0.20000
H1216       H  0.20582633  0.52707542  0.63705953     0.17700
H1217       H  0.33644335  0.49907183  0.60321363     0.17700
F1218       F  0.30401369  0.54708838  0.55970791    -0.20000
C1219       C  0.02129781  0.55409158  0.65321652    -0.21500
C1220       C  0.01869813  0.51487980  0.65083284    -0.09500
C1221       C  0.04996429  0.49392543  0.64058787     0.29400
C1222       C  0.08218799  0.51231191  0.62901248    -0.21500
C1223       C  0.08352128  0.55176730  0.62748085    -0.09500
C1224       C  0.05366854  0.57254536  0.64188302     0.29400
F1225       F  0.05382123  0.61059697  0.64030972    -0.20000
H1226       H  0.99728971  0.57054849  0.66128328     0.17700
H1227       H  0.10481340  0.49579538  0.61776003     0.17700
F1228       F  0.04819867  0.45596090  0.63863994    -0.20000
C1229       C  0.14637328  0.64504132  0.39144826    -0.21500
C1230       C  0.12433343  0.61934201  0.41053737    -0.09500
C1231       C  0.10098825  0.59452158  0.39149362     0.29400
C1232       C  0.10427635  0.59146570  0.35331746    -0.21500
C1233       C  0.12978841  0.61410156  0.33479295    -0.09500
C1234       C  0.14883401  0.64273732  0.35322745     0.29400
F1235       F  0.17371619  0.66463231  0.33503660    -0.20000
H1236       H  0.16460222  0.66391597  0.40636417     0.17700
H1237       H  0.08949756  0.56950680  0.33875187     0.17700
F1238       F  0.07963469  0.56946364  0.41017592    -0.20000
C1239       C  0.14437681  0.48084082  0.42885596    -0.21500
C1240       C  0.15223163  0.48018466  0.46706472    -0.09500
C1241       C  0.15540533  0.44552692  0.48542563     0.29400
C1242       C  0.14679736  0.41229877  0.46653628    -0.21500
C1243       C  0.13567531  0.41321267  0.42900738    -0.09500
C1244       C  0.13644214  0.44763929  0.40983002     0.29400
F1245       F  0.12433102  0.44987005  0.37410644    -0.20000
H1246       H  0.14215721  0.50739921  0.41423634     0.17700
H1247       H  0.14517889  0.38631505  0.48214418     0.17700
F1248       F  0.16342461  0.44409503  0.52226398    -0.20000
loop_ 
_geom_bond_atom_site_label_1 
_geom_bond_atom_site_label_2 
_geom_bond_distance 
_geom_bond_site_symmetry_2 
_ccdc_geom_bond_type 
Fe1          O17   2.064       .  S
Fe1           O7   2.030       .  S
Fe1          O14   2.057       .  S
Fe1           O6   2.079       .  S
Fe1          O12   1.929       .  S
Fe2           O5   2.103       .  S
Fe2           O9   2.007       .  S
Fe2          O13   2.095       .  S
Fe2          O18   2.025       .  S
Fe2          O12   1.927       .  S
Fe3          O21   2.091       .  S
Fe3           O8   2.131       .  S
Fe3          O15   2.147       .  S
Fe3           O4   2.040       .  S
Fe3          O12   1.945       .  S
O4           C11   1.271       .  A
O5           C19   1.280       .  A
O6           C11   1.275       .  A
O7           C10   1.258       .  A
O8           C20   1.280       .  A
O9           C22   1.261       .  A
C10          O15   1.281       .  A
C10        C1193   1.488       .  S
C11        C1210   1.466       .  S
O13          C16   1.271       .  A
O14          C16   1.262       .  A
C16        C1240   1.476       .  S
O17          C22   1.276       .  A
O18          C20   1.261       .  A
C19          O21   1.280       .  A
C19        C1200   1.505       .  S
C20        C1223   1.473       .  S
C22        C1230   1.430       .  S
Fe23         O39   2.077       .  S
Fe23         O29   2.023       .  S
Fe23         O36   2.053       .  S
Fe23         O28   2.079       .  S
Fe23         O34   1.940       .  S
Fe24         O27   2.083       .  S
Fe24         O31   1.997       .  S
Fe24         O35   2.076       .  S
Fe24         O40   1.998       .  S
Fe24         O34   1.941       .  S
Fe25         O43   2.093       .  S
Fe25         O30   2.169       .  S
Fe25         O37   2.156       .  S
Fe25         O26   2.052       .  S
Fe25         O34   1.943       .  S
O26          C33   1.272       .  A
O27          C41   1.269       .  A
O28          C33   1.276       .  A
O29          C32   1.259       .  A
O30          C42   1.292       .  A
O31          C44   1.260       .  A
C32          O37   1.286       .  A
C32        C1140   1.492       .  S
C33        C1163   1.481       .  S
O35          C38   1.267       .  A
O36          C38   1.260       .  A
C38        C1183   1.470       .  S
O39          C44   1.278       .  A
O40          C42   1.260       .  A
C41          O43   1.273       .  A
C41        C1153   1.504       .  S
C42        C1170   1.486       .  S
C44        C1233   1.429       .  S
Fe45         O61   2.073       .  S
Fe45         O51   2.034       .  S
Fe45         O58   2.058       .  S
Fe45         O50   2.102       .  S
Fe45         O56   1.920       .  S
Fe46         O49   2.115       .  S
Fe46         O53   2.001       .  S
Fe46         O57   2.087       .  S
Fe46         O62   2.014       .  S
Fe46         O56   1.914       .  S
Fe47         O65   2.085       .  S
Fe47         O52   2.151       .  S
Fe47         O59   2.149       .  S
Fe47         O48   2.045       .  S
Fe47         O56   1.948       .  S
O48          C55   1.275       .  A
O49          C63   1.282       .  A
O50          C55   1.281       .  A
O51          C54   1.259       .  A
O52          C64   1.281       .  A
O53          C66   1.259       .  A
C54          O59   1.282       .  A
C54        C1080   1.491       .  S
C55        C1103   1.483       .  S
O57          C60   1.271       .  A
O58          C60   1.264       .  A
C60        C1133   1.481       .  S
O61          C66   1.279       .  A
O62          C64   1.251       .  A
C63          O65   1.278       .  A
C63        C1093   1.503       .  S
C64        C1110   1.470       .  S
C66        C1120   1.426       .  S
Fe67         O83   2.069       .  S
Fe67         O73   2.011       .  S
Fe67         O80   2.050       .  S
Fe67         O72   2.052       .  S
Fe67         O78   1.930       .  S
Fe68         O71   2.077       .  S
Fe68         O75   2.005       .  S
Fe68         O79   2.108       .  S
Fe68         O84   2.017       .  S
Fe68         O78   1.933       .  S
Fe69         O87   2.100       .  S
Fe69         O74   2.138       .  S
Fe69         O81   2.150       .  S
Fe69         O70   2.061       .  S
Fe69         O78   1.938       .  S
O70          C77   1.271       .  A
O71          C85   1.269       .  A
O72          C77   1.268       .  A
O73          C76   1.259       .  A
O74          C86   1.290       .  A
O75          C88   1.264       .  A
C76          O81   1.287       .  A
C76        C1033   1.483       .  S
C77        C1050   1.473       .  S
O79          C82   1.269       .  A
O80          C82   1.257       .  A
C82        C1070   1.482       .  S
O83          C88   1.279       .  A
O84          C86   1.269       .  A
C85          O87   1.275       .  A
C85        C1040   1.503       .  S
C86        C1060   1.474       .  S
C88        C1123   1.445       .  S
Fe89        O105   2.075       .  S
Fe89         O95   2.007       .  S
Fe89        O102   2.039       .  S
Fe89         O94   2.045       .  S
Fe89        O100   1.940       .  S
Fe90         O93   2.064       .  S
Fe90         O97   2.002       .  S
Fe90        O101   2.093       .  S
Fe90        O106   2.012       .  S
Fe90        O100   1.944       .  S
Fe91        O109   2.113       .  S
Fe91         O96   2.144       .  S
Fe91        O103   2.139       .  S
Fe91         O92   2.087       .  S
Fe91        O100   1.941       .  S
O92          C99   1.276       .  A
O93         C107   1.263       .  A
O94          C99   1.265       .  A
O95          C98   1.260       .  A
O96         C108   1.292       .  A
O97         C110   1.262       .  A
C98         O103   1.285       .  A
C98         C970   1.476       .  S
C99         C990   1.486       .  S
O101        C104   1.266       .  A
O102        C104   1.255       .  A
C104       C1020   1.468       .  S
O105        C110   1.279       .  A
O106        C108   1.270       .  A
C107        O109   1.274       .  A
C107        C980   1.508       .  S
C108       C1000   1.480       .  S
C110       C1013   1.448       .  S
Fe111       O127   2.076       .  S
Fe111       O117   2.045       .  S
Fe111       O124   2.047       .  S
Fe111       O116   2.107       .  S
Fe111       O122   1.923       .  S
Fe112       O115   2.126       .  S
Fe112       O119   2.005       .  S
Fe112       O123   2.105       .  S
Fe112       O128   2.026       .  S
Fe112       O122   1.927       .  S
Fe113       O131   2.091       .  S
Fe113       O118   2.138       .  S
Fe113       O125   2.158       .  S
Fe113       O114   2.056       .  S
Fe113       O122   1.958       .  S
O114        C121   1.276       .  A
O115        C129   1.286       .  A
O116        C121   1.284       .  A
O117        C120   1.260       .  A
O118        C130   1.276       .  A
O119        C132   1.260       .  A
C120        O125   1.282       .  A
C120        C920   1.506       .  S
C121        C940   1.493       .  S
O123        C126   1.274       .  A
O124        C126   1.261       .  A
C126        C960   1.486       .  S
O127        C132   1.280       .  A
O128        C130   1.253       .  A
C129        O131   1.284       .  A
C129        C933   1.510       .  S
C130        C950   1.474       .  S
C132       C1010   1.429       .  S
Fe133       O149   2.032       .  S
Fe133       O139   2.047       .  S
Fe133       O146   2.063       .  S
Fe133       O138   2.038       .  S
Fe133       O144   1.947       .  S
Fe134       O137   2.065       .  S
Fe134       O141   2.048       .  S
Fe134       O145   2.069       .  S
Fe134       O150   2.037       .  S
Fe134       O144   1.929       .  S
Fe135       O153   2.104       .  S
Fe135       O140   2.100       .  S
Fe135       O147   2.124       .  S
Fe135       O136   2.097       .  S
Fe135       O144   1.929       .  S
O136        C143   1.281       .  A
O137        C151   1.266       .  A
O138        C143   1.273       .  A
O139        C142   1.256       .  A
O140        C152   1.280       .  A
O141        C154   1.275       .  A
C142        O147   1.276       .  A
C142        C870   1.481       .  S
C143        C890   1.473       .  S
O145        C148   1.264       .  A
O146        C148   1.260       .  A
C148       C1063   1.474   1_565  S
O149        C154   1.272       .  A
O150        C152   1.270       .  A
C151        O153   1.275       .  A
C151        C880   1.505       .  S
C152        C900   1.470       .  S
C154        C910   1.455       .  S
Fe155       O171   2.076       .  S
Fe155       O161   2.039       .  S
Fe155       O168   2.047       .  S
Fe155       O160   2.096       .  S
Fe155       O166   1.922       .  S
Fe156       O159   2.121       .  S
Fe156       O163   2.003       .  S
Fe156       O167   2.105       .  S
Fe156       O172   2.018       .  S
Fe156       O166   1.918       .  S
Fe157       O175   2.094       .  S
Fe157       O162   2.137       .  S
Fe157       O169   2.142       .  S
Fe157       O158   2.056       .  S
Fe157       O166   1.943       .  S
O158        C165   1.276       .  A
O159        C173   1.284       .  A
O160        C165   1.279       .  A
O161        C164   1.261       .  A
O162        C174   1.279       .  A
O163        C176   1.259       .  A
C164        O169   1.281       .  A
C164       C1043   1.487   1_565  S
C165        C840   1.488       .  S
O167        C170   1.274       .  A
O168        C170   1.261       .  A
C170        C860   1.475       .  S
O171        C176   1.278       .  A
O172        C174   1.253       .  A
C173        O175   1.282       .  A
C173        C830   1.512       .  S
C174        C850   1.466       .  S
C176        C913   1.428       .  S
Fe177       O193   2.066       .  S
Fe177       O183   2.042       .  S
Fe177       O190   2.053       .  S
Fe177       O182   2.083       .  S
Fe177       O188   1.927       .  S
Fe178       O181   2.121       .  S
Fe178       O185   2.015       .  S
Fe178       O189   2.102       .  S
Fe178       O194   2.027       .  S
Fe178       O188   1.914       .  S
Fe179       O197   2.099       .  S
Fe179       O184   2.140       .  S
Fe179       O191   2.159       .  S
Fe179       O180   2.064       .  S
Fe179       O188   1.954       .  S
O180        C187   1.277       .  A
O181        C195   1.286       .  A
O182        C187   1.277       .  A
O183        C186   1.260       .  A
O184        C196   1.277       .  A
O185        C198   1.261       .  A
C186        O191   1.284       .  A
C186        C780   1.497   1_554  S
C187        C800   1.484   1_554  S
O189        C192   1.275       .  A
O190        C192   1.263       .  A
C192       C1173   1.482       .  S
O193        C198   1.275       .  A
O194        C196   1.253       .  A
C195        O197   1.285       .  A
C195        C790   1.517       .  S
C196        C810   1.472       .  S
C198        C820   1.432       .  S
Fe199       O215   2.042       .  S
Fe199       O205   2.044   1_455  S
Fe199       O212   2.069       .  S
Fe199       O204   2.034   1_455  S
Fe199       O210   1.953   1_455  S
Fe200       O203   2.078       .  S
Fe200       O207   2.048   1_655  S
Fe200       O211   2.073   1_655  S
Fe200       O216   2.030       .  S
Fe200       O210   1.930       .  S
Fe201       O219   2.116       .  S
Fe201       O206   2.116       .  S
Fe201       O213   2.137       .  S
Fe201       O202   2.126       .  S
Fe201       O210   1.937       .  S
O202        C209   1.287       .  A
O203        C217   1.269       .  A
O204        C209   1.274       .  A
O205        C208   1.251       .  A
O206        C218   1.284       .  A
O207        C220   1.276       .  A
C208        O213   1.275       .  A
C208       C1150   1.486       .  S
C209        C753   1.486       .  S
O211        C214   1.265       .  A
O212        C214   1.259       .  A
C214        C773   1.480   1_554  S
O215        C220   1.276       .  A
O216        C218   1.269       .  A
C217        O219   1.277       .  A
C217        C740   1.515       .  S
C218        C760   1.472       .  S
C220        C823   1.457       .  S
Fe221       O237   2.077   1_545  S
Fe221       O227   2.038   1_545  S
Fe221       O234   2.051       .  S
Fe221       O226   2.091       .  S
Fe221       O232   1.928       .  S
Fe222       O225   2.101       .  S
Fe222       O229   2.009   1_545  S
Fe222       O233   2.078       .  S
Fe222       O238   2.021       .  S
Fe222       O232   1.923       .  S
Fe223       O241   2.095       .  S
Fe223       O228   2.154       .  S
Fe223       O235   2.159       .  S
Fe223       O224   2.075       .  S
Fe223       O232   1.947       .  S
O224        C231   1.277       .  A
O225        C239   1.279       .  A
O226        C231   1.279       .  A
O227        C230   1.262   1_565  A
O228        C240   1.283       .  A
O229        C242   1.261       .  A
C230        O235   1.286       .  A
C230        C793   1.501   1_545  S
C231        C943   1.495       .  S
O233        C236   1.269       .  A
O234        C236   1.262       .  A
C236        C903   1.474   1_545  S
O237        C242   1.278       .  A
O238        C240   1.255       .  A
C239        O241   1.279       .  A
C239       C1083   1.505       .  S
C240       C1073   1.477       .  S
C242        C730   1.432       .  S
Fe243       O259   2.061       .  S
Fe243       O249   2.022       .  S
Fe243       O256   2.044       .  S
Fe243       O248   2.026       .  S
Fe243       O254   1.938       .  S
Fe244       O247   2.062       .  S
Fe244       O251   2.022       .  S
Fe244       O255   2.101       .  S
Fe244       O260   2.026       .  S
Fe244       O254   1.950       .  S
Fe245       O263   2.113       .  S
Fe245       O250   2.136       .  S
Fe245       O257   2.144       .  S
Fe245       O246   2.095       .  S
Fe245       O254   1.951       .  S
O246        C253   1.274       .  A
O247        C261   1.264       .  A
O248        C253   1.261       .  A
O249        C252   1.263       .  A
O250        C262   1.291       .  A
O251        C264   1.267       .  A
C252        O257   1.288       .  A
C252        C883   1.485       .  S
C253        C993   1.483       .  S
O255        C258   1.267       .  A
O256        C258   1.255       .  A
C258        C813   1.483       .  S
O259        C264   1.277       .  A
O260        C262   1.275       .  A
C261        O263   1.274       .  A
C261       C1190   1.508       .  S
C262       C1180   1.476       .  S
C264        C733   1.448       .  S
Fe265       O281   2.073       .  S
Fe265       O271   2.025       .  S
Fe265       O278   2.046       .  S
Fe265       O270   2.071       .  S
Fe265       O276   1.942       .  S
Fe266       O269   2.073       .  S
Fe266       O273   2.001       .  S
Fe266       O277   2.081       .  S
Fe266       O282   1.989       .  S
Fe266       O276   1.943       .  S
Fe267       O285   2.108       .  S
Fe267       O272   2.163       .  S
Fe267       O279   2.159       .  S
Fe267       O268   2.066       .  S
Fe267       O276   1.947       .  S
O268        C275   1.272       .  A
O269        C283   1.267       .  A
O270        C275   1.272       .  A
O271        C274   1.261       .  A
O272        C284   1.291       .  A
O273        C286   1.258       .  A
C274        O279   1.288       .  A
C274        C833   1.493       .  S
C275        C803   1.487       .  S
O277        C280   1.269       .  A
O278        C280   1.261       .  A
C280       C1003   1.469   1_556  S
O281        C286   1.275       .  A
O282        C284   1.260       .  A
C283        O285   1.276       .  A
C283        C700   1.507       .  S
C284        C710   1.481       .  S
C286        C723   1.425       .  S
Fe287       O303   2.075       .  S
Fe287       O293   2.008       .  S
Fe287       O300   2.038       .  S
Fe287       O292   2.060       .  S
Fe287       O298   1.931       .  S
Fe288       O291   2.082       .  S
Fe288       O295   2.007       .  S
Fe288       O299   2.105       .  S
Fe288       O304   2.026       .  S
Fe288       O298   1.942       .  S
Fe289       O307   2.109       .  S
Fe289       O294   2.146       .  S
Fe289       O301   2.157       .  S
Fe289       O290   2.069       .  S
Fe289       O298   1.936       .  S
O290        C297   1.272       .  A
O291        C305   1.270       .  A
O292        C297   1.269       .  A
O293        C296   1.258       .  A
O294        C306   1.290       .  A
O295        C308   1.263       .  A
C296        O301   1.289       .  A
C296        C983   1.486   1_556  S
C297        C750   1.482   1_556  S
O299        C302   1.269       .  A
O300        C302   1.255       .  A
C302        C853   1.472       .  S
O303        C308   1.278       .  A
O304        C306   1.270       .  A
C305        O307   1.277       .  A
C305        C680   1.510       .  S
C306        C690   1.479       .  S
C308        C720   1.435       .  S
Fe309       O325   2.070   1_554  S
Fe309       O315   2.037   1_554  S
Fe309       O322   2.048       .  S
Fe309       O314   2.088       .  S
Fe309       O320   1.923       .  S
Fe310       O313   2.124       .  S
Fe310       O317   2.007   1_554  S
Fe310       O321   2.111       .  S
Fe310       O326   2.026       .  S
Fe310       O320   1.912       .  S
Fe311       O329   2.096       .  S
Fe311       O316   2.121       .  S
Fe311       O323   2.140       .  S
Fe311       O312   2.051       .  S
Fe311       O320   1.950       .  S
O312        C319   1.274       .  A
O313        C327   1.286       .  A
O314        C319   1.278       .  A
O315        C318   1.260   1_556  A
O316        C328   1.275       .  A
O317        C330   1.261       .  A
C318        O323   1.280       .  A
C318        C663   1.485   1_554  S
C319       C1160   1.482       .  S
O321        C324   1.276       .  A
O322        C324   1.262       .  A
C324        C713   1.483   1_554  S
O325        C330   1.277       .  A
O326        C328   1.256       .  A
C327        O329   1.284       .  A
C327        C923   1.516       .  S
C328       C1023   1.468       .  S
C330        C670   1.430       .  S
Fe331       O347   2.019       .  S
Fe331       O337   2.051       .  S
Fe331       O344   2.073       .  S
Fe331       O336   2.016       .  S
Fe331       O342   1.948       .  S
Fe332       O335   2.068       .  S
Fe332       O339   2.063       .  S
Fe332       O343   2.068       .  S
Fe332       O348   2.046       .  S
Fe332       O342   1.918       .  S
Fe333       O351   2.102       .  S
Fe333       O338   2.115       .  S
Fe333       O345   2.141       .  S
Fe333       O334   2.115       .  S
Fe333       O342   1.929       .  S
O334        C341   1.286       .  A
O335        C349   1.267       .  A
O336        C341   1.270       .  A
O337        C340   1.253       .  A
O338        C350   1.284       .  A
O339        C352   1.280       .  A
C340        O345   1.276       .  A
C340        C703   1.492       .  S
C341       C1213   1.472       .  S
O343        C346   1.263       .  A
O344        C346   1.260       .  A
C346        C653   1.476       .  S
O347        C352   1.270       .  A
O348        C350   1.272       .  A
C349        O351   1.276       .  A
C349       C1030   1.506       .  S
C350       C1130   1.480       .  S
C352        C673   1.449       .  S
Fe353       O369   2.082       .  S
Fe353       O359   2.019       .  S
Fe353       O366   2.044       .  S
Fe353       O358   2.090       .  S
Fe353       O364   1.917       .  S
Fe354       O357   2.089       .  S
Fe354       O361   1.996       .  S
Fe354       O365   2.104       .  S
Fe354       O370   2.014       .  S
Fe354       O364   1.925       .  S
Fe355       O373   2.096       .  S
Fe355       O360   2.149       .  S
Fe355       O367   2.160       .  S
Fe355       O356   2.051       .  S
Fe355       O364   1.939       .  S
O356        C363   1.273       .  A
O357        C371   1.275       .  A
O358        C363   1.278       .  A
O359        C362   1.257       .  A
O360        C372   1.286       .  A
O361        C374   1.258       .  A
C362        O367   1.286       .  A
C362        C623   1.492   1_455  S
C363        C633   1.482   1_455  S
O365        C368   1.270       .  A
O366        C368   1.257       .  A
C368       C1113   1.474       .  S
O369        C374   1.281       .  A
O370        C372   1.262       .  A
C371        O373   1.279       .  A
C371        C660   1.499       .  S
C372        C650   1.482       .  S
C374        C640   1.425       .  S
Fe375       O391   2.070   1_565  S
Fe375       O381   2.010       .  S
Fe375       O388   2.049       .  S
Fe375       O380   2.083       .  S
Fe375       O386   1.920       .  S
Fe376       O379   2.100       .  S
Fe376       O383   1.992   1_565  S
Fe376       O387   2.108       .  S
Fe376       O392   2.015       .  S
Fe376       O386   1.921       .  S
Fe377       O395   2.098       .  S
Fe377       O382   2.155       .  S
Fe377       O389   2.167       .  S
Fe377       O378   2.049       .  S
Fe377       O386   1.939       .  S
O378        C385   1.271       .  A
O379        C393   1.277       .  A
O380        C385   1.278       .  A
O381        C384   1.253       .  A
O382        C394   1.288       .  A
O383        C396   1.258       .  A
C384        O389   1.287       .  A
C384       C1090   1.489       .  S
C385        C603   1.479       .  S
O387        C390   1.273       .  A
O388        C390   1.259       .  A
C390        C610   1.477   1_465  S
O391        C396   1.278       .  A
O392        C394   1.263       .  A
C393        O395   1.279       .  A
C393        C783   1.504       .  S
C394        C770   1.484       .  S
C396        C643   1.430       .  S
Fe397       O413   2.068       .  S
Fe397       O403   2.026       .  S
Fe397       O410   2.062       .  S
Fe397       O402   2.087       .  S
Fe397       O408   1.929       .  S
Fe398       O401   2.091       .  S
Fe398       O405   2.003       .  S
Fe398       O409   2.082       .  S
Fe398       O414   2.002       .  S
Fe398       O408   1.929       .  S
Fe399       O417   2.078       .  S
Fe399       O404   2.158       .  S
Fe399       O411   2.151       .  S
Fe399       O400   2.040       .  S
Fe399       O408   1.942       .  S
O400        C407   1.270       .  A
O401        C415   1.273       .  A
O402        C407   1.278       .  A
O403        C406   1.258       .  A
O404        C416   1.287       .  A
O405        C418   1.260       .  A
C406        O411   1.284       .  A
C406       C1203   1.488   1_655  S
C407        C600   1.479   1_655  S
O409        C412   1.269       .  A
O410        C412   1.264       .  A
C412        C693   1.474       .  S
O413        C418   1.277       .  A
O414        C416   1.258       .  A
C415        O417   1.274       .  A
C415        C873   1.497       .  S
C416        C863   1.479       .  S
C418        C590   1.425       .  S
Fe419       O435   2.073       .  S
Fe419       O425   2.017       .  S
Fe419       O432   2.050       .  S
Fe419       O424   2.060       .  S
Fe419       O430   1.945       .  S
Fe420       O423   2.087       .  S
Fe420       O427   2.000       .  S
Fe420       O431   2.085       .  S
Fe420       O436   2.010       .  S
Fe420       O430   1.945       .  S
Fe421       O439   2.104       .  S
Fe421       O426   2.150       .  S
Fe421       O433   2.150       .  S
Fe421       O422   2.079       .  S
Fe421       O430   1.953       .  S
O422        C429   1.275       .  A
O423        C437   1.271       .  A
O424        C429   1.272       .  A
O425        C428   1.258       .  A
O426        C438   1.288       .  A
O427        C440   1.261       .  A
C428        O433   1.285       .  A
C428        C683   1.487       .  S
C429        C630   1.486       .  S
O431        C434   1.267       .  A
O432        C434   1.258       .  A
C434       C1220   1.469   1_655  S
O435        C440   1.277       .  A
O436        C438   1.263       .  A
C437        O439   1.276       .  A
C437        C570   1.512       .  S
C438        C580   1.476       .  S
C440        C593   1.433       .  S
Fe441       O457   2.073   1_455  S
Fe441       O447   2.023       .  S
Fe441       O454   2.051       .  S
Fe441       O446   2.064       .  S
Fe441       O452   1.935       .  S
Fe442       O445   2.093       .  S
Fe442       O449   2.000   1_455  S
Fe442       O453   2.114       .  S
Fe442       O458   2.012       .  S
Fe442       O452   1.929       .  S
Fe443       O461   2.102       .  S
Fe443       O448   2.149       .  S
Fe443       O455   2.152       .  S
Fe443       O444   2.073       .  S
Fe443       O452   1.939       .  S
O444        C451   1.273       .  A
O445        C459   1.273       .  A
O446        C451   1.271       .  A
O447        C450   1.262       .  A
O448        C460   1.289       .  A
O449        C462   1.256       .  A
C450        O455   1.288       .  A
C450        C550   1.485       .  S
C451       C1100   1.485       .  S
O453        C456   1.274       .  A
O454        C456   1.261       .  A
C456        C583   1.478   1_455  S
O457        C462   1.275       .  A
O458        C460   1.264       .  A
C459        O461   1.276       .  A
C459       C1143   1.509       .  S
C460       C1243   1.470       .  S
C462        C560   1.420       .  S
Fe463       O479   2.032       .  S
Fe463       O469   2.053       .  S
Fe463       O476   2.075       .  S
Fe463       O468   2.034       .  S
Fe463       O474   1.948       .  S
Fe464       O467   2.052       .  S
Fe464       O471   2.023       .  S
Fe464       O475   2.063       .  S
Fe464       O480   2.019       .  S
Fe464       O474   1.941       .  S
Fe465       O483   2.114       .  S
Fe465       O470   2.126       .  S
Fe465       O477   2.136       .  S
Fe465       O466   2.097       .  S
Fe465       O474   1.939       .  S
O466        C473   1.280       .  A
O467        C481   1.265       .  A
O468        C473   1.272       .  A
O469        C472   1.260       .  A
O470        C482   1.283       .  A
O471        C484   1.267       .  A
C472        O477   1.281       .  A
C472        C573   1.493       .  S
C473       C1053   1.478       .  S
O475        C478   1.265       .  A
O476        C478   1.264       .  A
C478        C540   1.484       .  S
O479        C484   1.270       .  A
O480        C482   1.263       .  A
C481        O483   1.278       .  A
C481        C973   1.503       .  S
C482        C963   1.475       .  S
C484        C563   1.449       .  S
Fe485       O501   2.076       .  S
Fe485       O491   2.009       .  S
Fe485       O498   2.039       .  S
Fe485       O490   2.044       .  S
Fe485       O496   1.935       .  S
Fe486       O489   2.082       .  S
Fe486       O493   2.011       .  S
Fe486       O497   2.109       .  S
Fe486       O502   2.019       .  S
Fe486       O496   1.942       .  S
Fe487       O505   2.092       .  S
Fe487       O492   2.152       .  S
Fe487       O499   2.164       .  S
Fe487       O488   2.065       .  S
Fe487       O496   1.941       .  S
O488        C495   1.269       .  A
O489        C503   1.268       .  A
O490        C495   1.267       .  A
O491        C494   1.258   1_545  A
O492        C504   1.294       .  A
O493        C506   1.266       .  A
C494        O499   1.291   1_565  A
C494        C743   1.491       .  S
C495        C893   1.477   1_545  S
O497        C500   1.269       .  A
O498        C500   1.254       .  A
C500        C953   1.479       .  S
O501        C506   1.281       .  A
O502        C504   1.272       .  A
C503        O505   1.271       .  A
C503        C553   1.505       .  S
C504        C543   1.484       .  S
C506        C530   1.448       .  S
Fe507       O523   2.081   1_556  S
Fe507       O513   2.032   1_556  S
Fe507       O520   2.044       .  S
Fe507       O512   2.085       .  S
Fe507       O518   1.919       .  S
Fe508       O511   2.104       .  S
Fe508       O515   2.008   1_556  S
Fe508       O519   2.101       .  S
Fe508       O524   2.012       .  S
Fe508       O518   1.922       .  S
Fe509       O527   2.098       .  S
Fe509       O514   2.155       .  S
Fe509       O521   2.162       .  S
Fe509       O510   2.065       .  S
Fe509       O518   1.940       .  S
O510        C517   1.273       .  A
O511        C525   1.279       .  A
O512        C517   1.277       .  A
O513        C516   1.261   1_554  A
O514        C526   1.286       .  A
O515        C528   1.260       .  A
C516        O521   1.288       .  A
C516        C930   1.496   1_556  S
C517        C843   1.486       .  S
O519        C522   1.272   1_545  A
O520        C522   1.259   1_545  A
C522        C763   1.473   1_556  S
O523        C528   1.278       .  A
O524        C526   1.257       .  A
C525        O527   1.278       .  A
C525        C620   1.507       .  S
C526        C613   1.474       .  S
C528        C533   1.432       .  S
C529        C530   1.404       .  A
C529        C534   1.387       .  A
C529        H536   1.083       .  S
C530        C531   1.402       .  A
C531        C532   1.382       .  A
C531        F538   1.358       .  S
C532        C533   1.396       .  A
C532        H537   1.084       .  S
C533        C534   1.397       .  A
C534        F535   1.358       .  S
C539        C540   1.410       .  A
C539        C544   1.406       .  A
C539        H546   1.084       .  S
C540        C541   1.404       .  A
C541        C542   1.395       .  A
C541        F548   1.358       .  S
C542        C543   1.409       .  A
C542        H547   1.084       .  S
C543        C544   1.406       .  A
C544        F545   1.357       .  S
C549        C550   1.402   1_655  A
C549        C554   1.406       .  A
C549        H556   1.084       .  S
C550        C551   1.411       .  A
C551        C552   1.409   1_455  A
C551        F558   1.358       .  S
C552        C553   1.408       .  A
C552        H557   1.083       .  S
C553        C554   1.416       .  A
C554        F555   1.357       .  S
C559        C560   1.395       .  A
C559        C564   1.379       .  A
C559        H566   1.083       .  S
C560        C561   1.390       .  A
C561        C562   1.381       .  A
C561        F568   1.358       .  S
C562        C563   1.410       .  A
C562        H567   1.083       .  S
C563        C564   1.403       .  A
C564        F565   1.358       .  S
C569        C570   1.407       .  A
C569        C574   1.409       .  A
C569        H576   1.083       .  S
C570        C571   1.419       .  A
C571        C572   1.410       .  A
C571        F578   1.357       .  S
C572        C573   1.404       .  A
C572        H577   1.083       .  S
C573        C574   1.413       .  A
C574        F575   1.357       .  S
C579        C580   1.410       .  A
C579        C584   1.401   1_655  A
C579        H586   1.084   1_655  S
C580        C581   1.405       .  A
C581        C582   1.404       .  A
C581        F588   1.358       .  S
C582        C583   1.407       .  A
C582        H587   1.083       .  S
C583        C584   1.400   1_655  A
C584        F585   1.357       .  S
C589        C590   1.397       .  A
C589        C594   1.382       .  A
C589        H596   1.084       .  S
C590        C591   1.396       .  A
C591        C592   1.384       .  A
C591        F598   1.358       .  S
C592        C593   1.401       .  A
C592        H597   1.084       .  S
C593        C594   1.397       .  A
C594        F595   1.358       .  S
C599        C600   1.404       .  A
C599        C604   1.396       .  A
C599        H606   1.083       .  S
C600        C601   1.411       .  A
C601        C602   1.393       .  A
C601        F608   1.358   1_455  S
C602        C603   1.403       .  A
C602        H607   1.083       .  S
C603        C604   1.410       .  A
C604        F605   1.357       .  S
C609        C610   1.400   1_565  A
C609        C614   1.402   1_565  A
C609        H616   1.083       .  S
C610        C611   1.407       .  A
C611        C612   1.402       .  A
C611        F618   1.357   1_655  S
C612        C613   1.403       .  A
C612        H617   1.084       .  S
C613        C614   1.413       .  A
C614        F615   1.358   1_545  S
C619        C620   1.409       .  A
C619        C624   1.404   1_655  A
C619        H626   1.083       .  S
C620        C621   1.412       .  A
C621        C622   1.416       .  A
C621        F628   1.357       .  S
C622        C623   1.411       .  A
C622        H627   1.083       .  S
C623        C624   1.408   1_655  A
C624        F625   1.358       .  S
C629        C630   1.407       .  A
C629        C634   1.402       .  A
C629        H636   1.083       .  S
C630        C631   1.410       .  A
C631        C632   1.393       .  A
C631        F638   1.358       .  S
C632        C633   1.404       .  A
C632        H637   1.083   1_655  S
C633        C634   1.409       .  A
C634        F635   1.357       .  S
C639        C640   1.396       .  A
C639        C644   1.384       .  A
C639        H646   1.084       .  S
C640        C641   1.397       .  A
C641        C642   1.381       .  A
C641        F648   1.358       .  S
C642        C643   1.396       .  A
C642        H647   1.084       .  S
C643        C644   1.400       .  A
C644        F645   1.358       .  S
C649        C650   1.408       .  A
C649        C654   1.392       .  A
C649        H656   1.084       .  S
C650        C651   1.409       .  A
C651        C652   1.407       .  A
C651        F658   1.357       .  S
C652        C653   1.407       .  A
C652        H657   1.084       .  S
C653        C654   1.400       .  A
C654        F655   1.357       .  S
C659        C660   1.411       .  A
C659        C664   1.402       .  A
C659        H666   1.083       .  S
C660        C661   1.409       .  A
C661        C662   1.411   1_556  A
C661        F668   1.357       .  S
C662        C663   1.410   1_554  A
C662        H667   1.084       .  S
C663        C664   1.403       .  A
C664        F665   1.357       .  S
C669        C670   1.395       .  A
C669        C674   1.381       .  A
C669        H676   1.084       .  S
C670        C671   1.394       .  A
C671        C672   1.385       .  A
C671        F678   1.358       .  S
C672        C673   1.405       .  A
C672        H677   1.084       .  S
C673        C674   1.406       .  A
C674        F675   1.359       .  S
C679        C680   1.413       .  A
C679        C684   1.406       .  A
C679        H686   1.083       .  S
C680        C681   1.411       .  A
C681        C682   1.413       .  A
C681        F688   1.357       .  S
C682        C683   1.411       .  A
C682        H687   1.083       .  S
C683        C684   1.405       .  A
C684        F685   1.358       .  S
C689        C690   1.409       .  A
C689        C694   1.400       .  A
C689        H696   1.084       .  S
C690        C691   1.405       .  A
C691        C692   1.404       .  A
C691        F698   1.357       .  S
C692        C693   1.406       .  A
C692        H697   1.084       .  S
C693        C694   1.401       .  A
C694        F695   1.358       .  S
C699        C700   1.405       .  A
C699        C704   1.408       .  A
C699        H706   1.083       .  S
C700        C701   1.419       .  A
C701        C702   1.408       .  A
C701        F708   1.357       .  S
C702        C703   1.402       .  A
C702        H707   1.083       .  S
C703        C704   1.413       .  A
C704        F705   1.357       .  S
C709        C710   1.402       .  A
C709        C714   1.407       .  A
C709        H716   1.083       .  S
C710        C711   1.416       .  A
C711        C712   1.401   1_556  A
C711        F718   1.358   1_556  S
C712        C713   1.397   1_554  A
C712        H717   1.083       .  S
C713        C714   1.412       .  A
C714        F715   1.358       .  S
C719        C720   1.397       .  A
C719        C724   1.383       .  A
C719        H726   1.084       .  S
C720        C721   1.403       .  A
C721        C722   1.385       .  A
C721        F728   1.358       .  S
C722        C723   1.393       .  A
C722        H727   1.084       .  S
C723        C724   1.399       .  A
C724        F725   1.359       .  S
C729        C730   1.396       .  A
C729        C734   1.388       .  A
C729        H736   1.084       .  S
C730        C731   1.396       .  A
C731        C732   1.381       .  A
C731        F738   1.359       .  S
C732        C733   1.402       .  A
C732        H737   1.084       .  S
C733        C734   1.405       .  A
C734        F735   1.358       .  S
C739        C740   1.414       .  A
C739        C744   1.411       .  A
C739        H746   1.083       .  S
C740        C741   1.411       .  A
C741        C742   1.413       .  A
C741        F748   1.357       .  S
C742        C743   1.412       .  A
C742        H747   1.083       .  S
C743        C744   1.408       .  A
C744        F745   1.358   1_565  S
C749        C750   1.403   1_556  A
C749        C754   1.395   1_556  A
C749        H756   1.083       .  S
C750        C751   1.410       .  A
C751        C752   1.399       .  A
C751        F758   1.358       .  S
C752        C753   1.406       .  A
C752        H757   1.083       .  S
C753        C754   1.412       .  A
C754        F755   1.357       .  S
C759        C760   1.409       .  A
C759        C764   1.399   1_554  A
C759        H766   1.083       .  S
C760        C761   1.402       .  A
C761        C762   1.403       .  A
C761        F768   1.357       .  S
C762        C763   1.408       .  A
C762        H767   1.083       .  S
C763        C764   1.399   1_554  A
C764        F765   1.357       .  S
C769        C770   1.409       .  A
C769        C774   1.394       .  A
C769        H776   1.084       .  S
C770        C771   1.408       .  A
C771        C772   1.409       .  A
C771        F778   1.357       .  S
C772        C773   1.409       .  A
C772        H777   1.083       .  S
C773        C774   1.400       .  A
C774        F775   1.357   1_455  S
C779        C780   1.405       .  A
C779        C784   1.409       .  A
C779        H786   1.083   1_556  S
C780        C781   1.413       .  A
C781        C782   1.411       .  A
C781        F788   1.356       .  S
C782        C783   1.406       .  A
C782        H787   1.083       .  S
C783        C784   1.414       .  A
C784        F785   1.358       .  S
C789        C790   1.412       .  A
C789        C794   1.405       .  A
C789        H796   1.083       .  S
C790        C791   1.415       .  A
C791        C792   1.418   1_565  A
C791        F798   1.356       .  S
C792        C793   1.409   1_545  A
C792        H797   1.083       .  S
C793        C794   1.409       .  A
C794        F795   1.358       .  S
C799        C800   1.405   1_554  A
C799        C804   1.398   1_554  A
C799        H806   1.083       .  S
C800        C801   1.411       .  A
C801        C802   1.397       .  A
C801        F808   1.358       .  S
C802        C803   1.406       .  A
C802        H807   1.083       .  S
C803        C804   1.411       .  A
C804        F805   1.357       .  S
C809        C810   1.405       .  A
C809        C814   1.401       .  A
C809        H816   1.082       .  S
C810        C811   1.405       .  A
C811        C812   1.401       .  A
C811        F818   1.357       .  S
C812        C813   1.406       .  A
C812        H817   1.083       .  S
C813        C814   1.407       .  A
C814        F815   1.358       .  S
C819        C820   1.391       .  A
C819        C824   1.386       .  A
C819        H826   1.084       .  S
C820        C821   1.399       .  A
C821        C822   1.383       .  A
C821        F828   1.357       .  S
C822        C823   1.401       .  A
C822        H827   1.084       .  S
C823        C824   1.411       .  A
C824        F825   1.358       .  S
C829        C830   1.411       .  A
C829        C834   1.415       .  A
C829        H836   1.083       .  S
C830        C831   1.415       .  A
C831        C832   1.407       .  A
C831        F838   1.357       .  S
C832        C833   1.406       .  A
C832        H837   1.084       .  S
C833        C834   1.412       .  A
C834        F835   1.357       .  S
C839        C840   1.405       .  A
C839        C844   1.394   1_565  A
C839        H846   1.083       .  S
C840        C841   1.411   1_565  A
C841        C842   1.404       .  A
C841        F848   1.358       .  S
C842        C843   1.408       .  A
C842        H847   1.083       .  S
C843        C844   1.408       .  A
C844        F845   1.357   1_545  S
C849        C850   1.405       .  A
C849        C854   1.400       .  A
C849        H856   1.084       .  S
C850        C851   1.408       .  A
C851        C852   1.398       .  A
C851        F858   1.358       .  S
C852        C853   1.402       .  A
C852        H857   1.083       .  S
C853        C854   1.406       .  A
C854        F855   1.358       .  S
C859        C860   1.408       .  A
C859        C864   1.405       .  A
C859        H866   1.084       .  S
C860        C861   1.398       .  A
C861        C862   1.399       .  A
C861        F868   1.357       .  S
C862        C863   1.413       .  A
C862        H867   1.084       .  S
C863        C864   1.405       .  A
C864        F865   1.357       .  S
C869        C870   1.402       .  A
C869        C874   1.406       .  A
C869        H876   1.084       .  S
C870        C871   1.410       .  A
C871        C872   1.401       .  A
C871        F878   1.358       .  S
C872        C873   1.405       .  A
C872        H877   1.083       .  S
C873        C874   1.416       .  A
C874        F875   1.357       .  S
C879        C880   1.414       .  A
C879        C884   1.408       .  A
C879        H886   1.083       .  S
C880        C881   1.409       .  A
C881        C882   1.406       .  A
C881        F888   1.357       .  S
C882        C883   1.410       .  A
C882        H887   1.084       .  S
C883        C884   1.404       .  A
C884        F885   1.357       .  S
C889        C890   1.405       .  A
C889        C894   1.397   1_565  A
C889        H896   1.083       .  S
C890        C891   1.405       .  A
C891        C892   1.390       .  A
C891        F898   1.358       .  S
C892        C893   1.405       .  A
C892        H897   1.082       .  S
C893        C894   1.409   1_565  A
C894        F895   1.358       .  S
C899        C900   1.406       .  A
C899        C904   1.392   1_565  A
C899        H906   1.084       .  S
C900        C901   1.401       .  A
C901        C902   1.406       .  A
C901        F908   1.357       .  S
C902        C903   1.411       .  A
C902        H907   1.084       .  S
C903        C904   1.400   1_565  A
C904        F905   1.358       .  S
C909        C910   1.408       .  A
C909        C914   1.385       .  A
C909        H916   1.083       .  S
C910        C911   1.406       .  A
C911        C912   1.381       .  A
C911        F918   1.358       .  S
C912        C913   1.396       .  A
C912        H917   1.084       .  S
C913        C914   1.391       .  A
C914        F915   1.358       .  S
C919        C920   1.407       .  A
C919        C924   1.405       .  A
C919        H926   1.083       .  S
C920        C921   1.412       .  A
C921        C922   1.419       .  A
C921        F928   1.357       .  S
C922        C923   1.414       .  A
C922        H927   1.082       .  S
C923        C924   1.415       .  A
C924        F925   1.358       .  S
C929        C930   1.406       .  A
C929        C934   1.408       .  A
C929        H936   1.084       .  S
C930        C931   1.411       .  A
C931        C932   1.414       .  A
C931        F938   1.357   1_554  S
C932        C933   1.411       .  A
C932        H937   1.083       .  S
C933        C934   1.415       .  A
C934        F935   1.358       .  S
C939        C940   1.408       .  A
C939        C944   1.404       .  A
C939        H946   1.082       .  S
C940        C941   1.411       .  A
C941        C942   1.399       .  A
C941        F948   1.358       .  S
C942        C943   1.407       .  A
C942        H947   1.082       .  S
C943        C944   1.411       .  A
C944        F945   1.357       .  S
C949        C950   1.407       .  A
C949        C954   1.403       .  A
C949        H956   1.083       .  S
C950        C951   1.407       .  A
C951        C952   1.399       .  A
C951        F958   1.358       .  S
C952        C953   1.404       .  A
C952        H957   1.084       .  S
C953        C954   1.406       .  A
C954        F955   1.358       .  S
C959        C960   1.411       .  A
C959        C964   1.405       .  A
C959        H966   1.083       .  S
C960        C961   1.401       .  A
C961        C962   1.403       .  A
C961        F968   1.357       .  S
C962        C963   1.411       .  A
C962        H967   1.084       .  S
C963        C964   1.402       .  A
C964        F965   1.357       .  S
C969        C970   1.402       .  A
C969        C974   1.403       .  A
C969        H976   1.084       .  S
C970        C971   1.410       .  A
C971        C972   1.407       .  A
C971        F978   1.357       .  S
C972        C973   1.406       .  A
C972        H977   1.083       .  S
C973        C974   1.417       .  A
C974        F975   1.358       .  S
C979        C980   1.405       .  A
C979        C984   1.410       .  A
C979        H986   1.083       .  S
C980        C981   1.419       .  A
C981        C982   1.408       .  A
C981        F988   1.358       .  S
C982        C983   1.402       .  A
C982        H987   1.083   1_554  S
C983        C984   1.414       .  A
C984        F985   1.358       .  S
C989        C990   1.401       .  A
C989        C994   1.394       .  A
C989        H996   1.083       .  S
C990        C991   1.416       .  A
C991        C992   1.401       .  A
C991        F998   1.358       .  S
C992        C993   1.402       .  A
C992        H997   1.083       .  S
C993        C994   1.413       .  A
C994        F995   1.358       .  S
C999       C1000   1.404       .  A
C999       C1004   1.404       .  A
C999       H1006   1.083       .  S
C1000      C1001   1.413       .  A
C1001      C1002   1.393       .  A
C1001      F1008   1.358       .  S
C1002      C1003   1.396       .  A
C1002      H1007   1.084       .  S
C1003      C1004   1.408       .  A
C1004      F1005   1.358       .  S
C1009      C1010   1.392       .  A
C1009      C1014   1.385       .  A
C1009      H1016   1.084       .  S
C1010      C1011   1.398       .  A
C1011      C1012   1.383       .  A
C1011      F1018   1.359       .  S
C1012      C1013   1.400       .  A
C1012      H1017   1.084       .  S
C1013      C1014   1.408       .  A
C1014      F1015   1.358       .  S
C1019      C1020   1.402       .  A
C1019      C1024   1.399       .  A
C1019      H1026   1.083       .  S
C1020      C1021   1.403       .  A
C1021      C1022   1.395       .  A
C1021      F1028   1.358       .  S
C1022      C1023   1.405       .  A
C1022      H1027   1.084       .  S
C1023      C1024   1.407       .  A
C1024      F1025   1.357       .  S
C1029      C1030   1.406       .  A
C1029      C1034   1.406       .  A
C1029      H1036   1.084       .  S
C1030      C1031   1.418       .  A
C1031      C1032   1.408       .  A
C1031      F1038   1.357       .  S
C1032      C1033   1.404       .  A
C1032      H1037   1.084       .  S
C1033      C1034   1.411       .  A
C1034      F1035   1.358       .  S
C1039      C1040   1.412       .  A
C1039      C1044   1.403   1_545  A
C1039      H1046   1.083       .  S
C1040      C1041   1.410       .  A
C1041      C1042   1.411       .  A
C1041      F1048   1.357       .  S
C1042      C1043   1.410       .  A
C1042      H1047   1.084       .  S
C1043      C1044   1.402   1_545  A
C1044      F1045   1.357       .  S
C1049      C1050   1.405       .  A
C1049      C1054   1.395       .  A
C1049      H1056   1.083       .  S
C1050      C1051   1.406       .  A
C1051      C1052   1.393       .  A
C1051      F1058   1.358       .  S
C1052      C1053   1.406       .  A
C1052      H1057   1.083       .  S
C1053      C1054   1.409       .  A
C1054      F1055   1.358       .  S
C1059      C1060   1.403       .  A
C1059      C1064   1.401       .  A
C1059      H1066   1.084       .  S
C1060      C1061   1.410       .  A
C1061      C1062   1.395       .  A
C1061      F1068   1.358       .  S
C1062      C1063   1.400       .  A
C1062      H1067   1.084       .  S
C1063      C1064   1.409       .  A
C1064      F1065   1.357   1_545  S
C1069      C1070   1.403       .  A
C1069      C1074   1.402       .  A
C1069      H1076   1.084       .  S
C1070      C1071   1.407       .  A
C1071      C1072   1.404       .  A
C1071      F1078   1.358       .  S
C1072      C1073   1.407       .  A
C1072      H1077   1.083       .  S
C1073      C1074   1.409       .  A
C1074      F1075   1.357       .  S
C1079      C1080   1.409       .  A
C1079      C1084   1.414       .  A
C1079      H1086   1.083       .  S
C1080      C1081   1.407       .  A
C1081      C1082   1.402       .  A
C1081      F1088   1.358       .  S
C1082      C1083   1.410       .  A
C1082      H1087   1.083       .  S
C1083      C1084   1.413       .  A
C1084      F1085   1.357       .  S
C1089      C1090   1.411       .  A
C1089      C1094   1.413   1_565  A
C1089      H1096   1.084       .  S
C1090      C1091   1.409   1_565  A
C1091      C1092   1.407       .  A
C1091      F1098   1.357       .  S
C1092      C1093   1.408       .  A
C1092      H1097   1.084       .  S
C1093      C1094   1.410       .  A
C1094      F1095   1.357       .  S
C1099      C1100   1.407       .  A
C1099      C1104   1.402       .  A
C1099      H1106   1.083       .  S
C1100      C1101   1.410       .  A
C1101      C1102   1.393       .  A
C1101      F1108   1.358       .  S
C1102      C1103   1.405       .  A
C1102      H1107   1.083       .  S
C1103      C1104   1.409       .  A
C1104      F1105   1.357       .  S
C1109      C1110   1.404       .  A
C1109      C1114   1.401       .  A
C1109      H1116   1.083       .  S
C1110      C1111   1.411       .  A
C1111      C1112   1.401       .  A
C1111      F1118   1.358       .  S
C1112      C1113   1.400       .  A
C1112      H1117   1.083       .  S
C1113      C1114   1.406       .  A
C1114      F1115   1.357       .  S
C1119      C1120   1.395       .  A
C1119      C1124   1.379       .  A
C1119      H1126   1.085       .  S
C1120      C1121   1.394       .  A
C1121      C1122   1.386       .  A
C1121      F1128   1.358       .  S
C1122      C1123   1.405       .  A
C1122      H1127   1.083       .  S
C1123      C1124   1.402       .  A
C1124      F1125   1.359       .  S
C1129      C1130   1.407       .  A
C1129      C1134   1.396       .  A
C1129      H1136   1.082       .  S
C1130      C1131   1.404       .  A
C1131      C1132   1.409       .  A
C1131      F1138   1.357       .  S
C1132      C1133   1.411       .  A
C1132      H1137   1.083       .  S
C1133      C1134   1.401       .  A
C1134      F1135   1.358       .  S
C1139      C1140   1.405       .  A
C1139      C1144   1.408       .  A
C1139      H1146   1.083       .  S
C1140      C1141   1.413       .  A
C1141      C1142   1.413       .  A
C1141      F1148   1.358       .  S
C1142      C1143   1.408       .  A
C1142      H1147   1.083       .  S
C1143      C1144   1.415       .  A
C1144      F1145   1.357       .  S
C1149      C1150   1.410       .  A
C1149      C1154   1.406   1_655  A
C1149      H1156   1.084       .  S
C1150      C1151   1.405   1_655  A
C1151      C1152   1.407       .  A
C1151      F1158   1.357       .  S
C1152      C1153   1.414       .  A
C1152      H1157   1.083       .  S
C1153      C1154   1.409       .  A
C1154      F1155   1.357       .  S
C1159      C1160   1.408       .  A
C1159      C1164   1.396       .  A
C1159      H1166   1.083       .  S
C1160      C1161   1.408       .  A
C1161      C1162   1.395       .  A
C1161      F1168   1.358       .  S
C1162      C1163   1.407       .  A
C1162      H1167   1.083       .  S
C1163      C1164   1.407       .  A
C1164      F1165   1.358       .  S
C1169      C1170   1.403       .  A
C1169      C1174   1.408       .  A
C1169      H1176   1.083       .  S
C1170      C1171   1.416       .  A
C1171      C1172   1.399       .  A
C1171      F1178   1.358       .  S
C1172      C1173   1.397       .  A
C1172      H1177   1.083       .  S
C1173      C1174   1.412       .  A
C1174      F1175   1.358       .  S
C1179      C1180   1.404       .  A
C1179      C1184   1.405       .  A
C1179      H1186   1.083       .  S
C1180      C1181   1.409       .  A
C1181      C1182   1.393       .  A
C1181      F1188   1.358       .  S
C1182      C1183   1.397       .  A
C1182      H1187   1.084       .  S
C1183      C1184   1.408       .  A
C1184      F1185   1.357       .  S
C1189      C1190   1.413       .  A
C1189      C1194   1.405       .  A
C1189      H1196   1.083       .  S
C1190      C1191   1.410       .  A
C1191      C1192   1.413       .  A
C1191      F1198   1.357       .  S
C1192      C1193   1.411       .  A
C1192      H1197   1.084       .  S
C1193      C1194   1.403       .  A
C1194      F1195   1.357       .  S
C1199      C1200   1.407       .  A
C1199      C1204   1.411       .  A
C1199      H1206   1.083       .  S
C1200      C1201   1.414       .  A
C1201      C1202   1.406       .  A
C1201      F1208   1.358       .  S
C1202      C1203   1.405       .  A
C1202      H1207   1.083   1_455  S
C1203      C1204   1.411       .  A
C1204      F1205   1.357       .  S
C1209      C1210   1.402       .  A
C1209      C1214   1.388       .  A
C1209      H1216   1.084       .  S
C1210      C1211   1.405       .  A
C1211      C1212   1.396       .  A
C1211      F1218   1.357       .  S
C1212      C1213   1.406       .  A
C1212      H1217   1.083       .  S
C1213      C1214   1.409       .  A
C1214      F1215   1.358       .  S
C1219      C1220   1.404       .  A
C1219      C1224   1.401       .  A
C1219      H1226   1.084   1_455  S
C1220      C1221   1.400       .  A
C1221      C1222   1.398       .  A
C1221      F1228   1.357       .  S
C1222      C1223   1.409       .  A
C1222      H1227   1.084       .  S
C1223      C1224   1.405       .  A
C1224      F1225   1.358       .  S
C1229      C1230   1.395       .  A
C1229      C1234   1.382       .  A
C1229      H1236   1.084       .  S
C1230      C1231   1.402       .  A
C1231      C1232   1.385       .  A
C1231      F1238   1.358       .  S
C1232      C1233   1.394       .  A
C1232      H1237   1.084       .  S
C1233      C1234   1.400       .  A
C1234      F1235   1.358       .  S
C1239      C1240   1.403       .  A
C1239      C1244   1.400       .  A
C1239      H1246   1.084       .  S
C1240      C1241   1.403       .  A
C1241      C1242   1.404       .  A
C1241      F1248   1.357       .  S
C1242      C1243   1.408       .  A
C1242      H1247   1.083       .  S
C1243      C1244   1.406       .  A
C1244      F1245   1.358       .  S
