geometry optimzed in LAMMPS
_audit_creation_date              2020-12-01 
_audit_creation_method            'lammps2cif' 
_symmetry_space_group_name_H-M    'P1' 
_symmetry_Int_Tables_number       1 
_symmetry_cell_setting            triclinic 
loop_ 
_symmetry_equiv_pos_as_xyz 
  x,y,z 
_cell_length_a                    32.69846799 
_cell_length_b                    32.6984699401005 
_cell_length_c                    32.698465862144154 
_cell_angle_alpha                 89.99857107940717 
_cell_angle_beta                  89.99937020748436 
_cell_angle_gamma                 90.00014205462378 
loop_ 
_atom_site_label 
_atom_site_type_symbol 
_atom_site_fract_x 
_atom_site_fract_y 
_atom_site_fract_z 
_atom_site_charge 
O1          O  0.72788820  0.33016942  0.96672781    -0.69300
O2          O  0.61171000  0.33020502  0.96672741    -0.69500
O3          O  0.66980564  0.38829747  0.96672738    -0.69400
O4          O  0.66983483  0.27211951  0.96672754    -0.69400
O5          O  0.66983251  0.27211821  0.03325699    -0.69300
O6          O  0.66980524  0.38829631  0.03325560    -0.69300
O7          O  0.61170881  0.33020494  0.03325562    -0.69300
O8          O  0.72788671  0.33016712  0.03325726    -0.69500
V9          V  0.66980241  0.33020511  0.96802085     1.35200
V10         V  0.66980112  0.33020394  0.03196304     1.35200
C11         C  0.74749458  0.33007279  0.99999278     0.80000
C12         C  0.59209703  0.33020362  0.99999142     0.80000
C13         C  0.66980777  0.40790926  0.99999132     0.79900
C14         C  0.66992754  0.25251172  0.99999233     0.79900
O15         O  0.33168736  0.33016701  0.03326169    -0.69300
O16         O  0.44786549  0.33020324  0.03325805    -0.69500
O17         O  0.38976974  0.38829539  0.03326115    -0.69400
O18         O  0.38974064  0.27211752  0.03325886    -0.69400
O19         O  0.38974078  0.27212066  0.96672939    -0.69300
O20         O  0.38976773  0.38829881  0.96673293    -0.69300
O21         O  0.44786446  0.33020771  0.96672983    -0.69300
O22         O  0.33168648  0.33016919  0.96673223    -0.69500
V23         V  0.38977305  0.33020313  0.03196660     1.35200
V24         V  0.38977214  0.33020631  0.96802440     1.35200
C25         C  0.31207973  0.33007253  0.99999741     0.80000
C26         C  0.46747734  0.33020413  0.99999340     0.80000
C27         C  0.38976604  0.40790948  0.99999759     0.79900
C28         C  0.38964665  0.25251189  0.99999371     0.79900
O29         O  0.72788653  0.61026589  0.03325685    -0.69300
O30         O  0.61170848  0.61023399  0.03325838    -0.69500
O31         O  0.66980227  0.55213979  0.03325622    -0.69400
O32         O  0.66983561  0.66831774  0.03325913    -0.69400
O33         O  0.66983401  0.66832074  0.96672968    -0.69300
O34         O  0.66980274  0.55214265  0.96672800    -0.69300
O35         O  0.61170796  0.61023581  0.96673017    -0.69300
O36         O  0.72788602  0.61026978  0.96672739    -0.69500
V37         V  0.66980089  0.61023217  0.03196431     1.35200
V38         V  0.66980038  0.61023497  0.96802212     1.35200
C39         C  0.74749347  0.61036220  0.99999177     0.80000
C40         C  0.59209584  0.61023674  0.99999464     0.80000
C41         C  0.66980503  0.53252886  0.99999177     0.79900
C42         C  0.66992984  0.68792643  0.99999483     0.79900
O43         O  0.33168484  0.61026892  0.96673667    -0.69300
O44         O  0.44786297  0.61023591  0.96673381    -0.69500
O45         O  0.38976842  0.55214229  0.96673581    -0.69400
O46         O  0.38973657  0.66832019  0.96673437    -0.69400
O47         O  0.38973889  0.66831915  0.03326382    -0.69300
O48         O  0.38976866  0.55214092  0.03326402    -0.69300
O49         O  0.44786417  0.61023377  0.03326201    -0.69300
O50         O  0.33168612  0.61026885  0.03326613    -0.69500
V51         V  0.38977053  0.61023455  0.96802851     1.35200
V52         V  0.38977175  0.61023342  0.03197069     1.35200
C53         C  0.31207834  0.61036375  0.00000198     0.80000
C54         C  0.46747596  0.61023665  0.99999735     0.80000
C55         C  0.38976603  0.53252922  0.99999997     0.79900
C56         C  0.38964292  0.68792680  0.99999893     0.79900
O57         O  0.72788415  0.93694919  0.64004212    -0.69300
O58         O  0.61170605  0.93694869  0.64000879    -0.69500
O59         O  0.66980122  0.93695195  0.58191508    -0.69400
O60         O  0.66983171  0.93694604  0.69809324    -0.69400
O61         O  0.66983008  0.00347549  0.69809447    -0.69300
O62         O  0.66980188  0.00348015  0.58191649    -0.69300
O63         O  0.61170562  0.00347689  0.64000908    -0.69300
O64         O  0.72788370  0.00347864  0.64004455    -0.69500
V65         V  0.66979847  0.93824228  0.64000755     1.35200
V66         V  0.66979803  0.00218446  0.64000883     1.35200
C67         C  0.74749108  0.97021406  0.64013840     0.80000
C68         C  0.59209344  0.97021262  0.64001087     0.80000
C69         C  0.66980431  0.97021697  0.56230340     0.79900
C70         C  0.66992535  0.97020996  0.71770098     0.79900
O71         O  0.38973381  0.93695305  0.69809675    -0.69300
O72         O  0.38976576  0.93695108  0.58191863    -0.69500
O73         O  0.44786014  0.93695055  0.64001158    -0.69400
O74         O  0.33168209  0.93695354  0.64004621    -0.69400
O75         O  0.33168426  0.00348299  0.64004196    -0.69300
O76         O  0.44786232  0.00347875  0.64000963    -0.69300
O77         O  0.38976903  0.00347929  0.58191560    -0.69300
O78         O  0.38973493  0.00348250  0.69809357    -0.69500
V79         V  0.38976777  0.93824537  0.64001097     1.35200
V80         V  0.38976988  0.00218755  0.64000798     1.35200
C81         C  0.38963931  0.97021825  0.71770233     0.80000
C82         C  0.38976539  0.97021480  0.56230475     0.80000
C83         C  0.46747362  0.97021407  0.64001237     0.79900
C84         C  0.31207599  0.97021888  0.64013913     0.79900
O85         O  0.33168692  0.93694821  0.35994634    -0.69300
O86         O  0.44786507  0.93695356  0.35997948    -0.69500
O87         O  0.38977020  0.93695047  0.41807322    -0.69400
O88         O  0.38973939  0.93695115  0.30189516    -0.69400
O89         O  0.38973766  0.00348060  0.30189421    -0.69300
O90         O  0.38976669  0.00347868  0.41807229    -0.69300
O91         O  0.44786240  0.00348176  0.35997944    -0.69300
O92         O  0.33168452  0.00347766  0.35994452    -0.69500
V93         V  0.38977261  0.93824415  0.35998082     1.35200
V94         V  0.38977014  0.00218633  0.35997992     1.35200
C95         C  0.31207858  0.97021225  0.35985029     0.80000
C96         C  0.46747610  0.97021854  0.35997771     0.80000
C97         C  0.38976605  0.97021434  0.43768513     0.79900
C98         C  0.38964420  0.97021603  0.28228753     0.79900
O99         O  0.72788584  0.00349060  0.35994335    -0.69300
O100        O  0.61170761  0.00348783  0.35997884    -0.69500
O101        O  0.66980255  0.00348714  0.41807146    -0.69400
O102        O  0.66983343  0.00349138  0.30189328    -0.69400
O103        O  0.66983345  0.93696192  0.30189307    -0.69300
O104        O  0.66980456  0.93695893  0.41807102    -0.69300
O105        O  0.61170885  0.93695962  0.35997945    -0.69300
O106        O  0.72788674  0.93696115  0.35994211    -0.69500
V107        V  0.66980011  0.00219595  0.35997900     1.35200
V108        V  0.66980113  0.93825377  0.35997868     1.35200
C109        C  0.74749349  0.97022616  0.35984739     0.80000
C110        C  0.59209586  0.97022328  0.35997762     0.80000
C111        C  0.66980599  0.97022238  0.43768361     0.79900
C112        C  0.66992774  0.97022716  0.28228597     0.79900
O113        O  0.06305143  0.66831865  0.64004396    -0.69300
O114        O  0.06304975  0.55214054  0.64001370    -0.69500
O115        O  0.06304848  0.61023482  0.58191861    -0.69400
O116        O  0.06305283  0.61026669  0.69809664    -0.69400
O117        O  0.99652338  0.61026610  0.69809944    -0.69300
O118        O  0.99652026  0.61023623  0.58192138    -0.69300
O119        O  0.99652154  0.55214100  0.64001556    -0.69300
O120        O  0.99652198  0.66831902  0.64004768    -0.69500
V121        V  0.06175731  0.61023293  0.64001102     1.35200
V122        V  0.99781512  0.61023334  0.64001371     1.35200
C123        C  0.02978683  0.68792596  0.64014018     0.80000
C124        C  0.02978543  0.53252838  0.64001697     0.80000
C125        C  0.02978379  0.61023776  0.56230762     0.79900
C126        C  0.02978874  0.61036062  0.71770518     0.79900
O127        O  0.06304668  0.33016839  0.69810085    -0.68100
O128        O  0.06304876  0.33020290  0.58192286    -0.69500
O129        O  0.06304798  0.38829596  0.64001640    -0.69400
O130        O  0.06304738  0.27211789  0.64004987    -0.69400
O131        O  0.99651791  0.27211849  0.64004802    -0.69300
O132        O  0.99651977  0.38829650  0.64001663    -0.69300
O133        O  0.99652054  0.33020446  0.58192203    -0.69300
O134        O  0.99651722  0.33016788  0.69810012    -0.69500
V135        V  0.06175438  0.33020358  0.64001521     1.35200
V136        V  0.99781218  0.33020412  0.64001444     1.35200
C137        C  0.02978156  0.33007279  0.71770769     0.80000
C138        C  0.02978511  0.33020191  0.56231008     0.80000
C139        C  0.02978408  0.40790863  0.64001855     0.79900
C140        C  0.02978241  0.25251100  0.64014385     0.79900
O141        O  0.06304789  0.61026529  0.30189711    -0.69300
O142        O  0.06304672  0.61023518  0.41807520    -0.69500
O143        O  0.06304859  0.55214003  0.35998358    -0.69400
O144        O  0.06304619  0.66831804  0.35994605    -0.69400
O145        O  0.99651674  0.66831625  0.35994759    -0.69300
O146        O  0.99652038  0.55213807  0.35998304    -0.69300
O147        O  0.99651851  0.61023236  0.41807567    -0.69300
O148        O  0.99651843  0.61026454  0.30189767    -0.69500
V149        V  0.06175401  0.61023234  0.35998280     1.35200
V150        V  0.99781183  0.61023056  0.35998328     1.35200
C151        C  0.02978317  0.61035921  0.28229021     0.80000
C152        C  0.02978252  0.61023626  0.43768782     0.80000
C153        C  0.02978503  0.53252666  0.35998143     0.79900
C154        C  0.02978097  0.68792434  0.35985151     0.79900
O155        O  0.06305496  0.27211697  0.35995370    -0.69300
O156        O  0.06305266  0.38829510  0.35998190    -0.69500
O157        O  0.06305244  0.33020209  0.41807818    -0.69400
O158        O  0.06305516  0.33016744  0.30190006    -0.69400
O159        O  0.99652571  0.33016742  0.30189972    -0.69300
O160        O  0.99652423  0.33020001  0.41807774    -0.69300
O161        O  0.99652444  0.38829396  0.35998253    -0.69300
O162        O  0.99652551  0.27211596  0.35995225    -0.69500
V163        V  0.06176050  0.33020265  0.35998575     1.35200
V164        V  0.99781831  0.33020162  0.35998536     1.35200
C165        C  0.02979051  0.25250933  0.35985814     0.80000
C166        C  0.02978827  0.40790692  0.35997994     0.80000
C167        C  0.02978797  0.33019954  0.43769034     0.79900
C168        C  0.02979072  0.33007226  0.28229276     0.79900
O169        O  0.08785596  0.36146180  0.99999889    -0.69300
O170        O  0.97171832  0.36146161  0.00000021    -0.69500
O171        O  0.02978730  0.36146136  0.05806839    -0.69400
O172        O  0.02978694  0.36146202  0.94193077    -0.69400
O173        O  0.02978597  0.29493208  0.94190047    -0.69300
O174        O  0.02978811  0.29493143  0.05810131    -0.69300
O175        O  0.97168662  0.29493168  0.00000239    -0.69300
O176        O  0.08788753  0.29493187  0.99999929    -0.69500
V177        V  0.02978714  0.36016038  0.99999960     1.35200
V178        V  0.02978707  0.29621687  0.00000086     1.35200
C179        C  0.10747868  0.32821123  0.99999886     0.80000
C180        C  0.95209559  0.32821103  0.00000126     0.80000
C181        C  0.02978806  0.32821068  0.07769173     0.79900
C182        C  0.02978594  0.32821152  0.92230869     0.79900
O183        O  0.02978445  0.57896377  0.05806730    -0.69300
O184        O  0.02978908  0.57896380  0.94192970    -0.69500
O185        O  0.08785556  0.57896529  0.00000031    -0.69400
O186        O  0.97171779  0.57896246  0.99999675    -0.69400
O187        O  0.97168497  0.64549240  0.99999424    -0.69300
O188        O  0.08788565  0.64549522  0.99999945    -0.69300
O189        O  0.02978856  0.64549373  0.94189643    -0.69300
O190        O  0.02978220  0.64549371  0.05809725    -0.69500
V191        V  0.02978668  0.58026513  0.99999849     1.35200
V192        V  0.02978535  0.64420863  0.99999687     1.35200
C193        C  0.02978268  0.61221436  0.07768919     0.80000
C194        C  0.02978969  0.61221434  0.92230619     0.80000
C195        C  0.10747748  0.61221635  0.00000068     0.79900
C196        C  0.95209445  0.61221268  0.99999466     0.79900
O197        O  0.08788690  0.97021637  0.32470972    -0.69300
O198        O  0.97168606  0.97021870  0.32470960    -0.69500
O199        O  0.02978776  0.02831807  0.32470911    -0.69400
O200        O  0.02978514  0.91211700  0.32471039    -0.69400
O201        O  0.02978352  0.91214771  0.39124033    -0.69300
O202        O  0.02978770  0.02828520  0.39123904    -0.69300
O203        O  0.97171683  0.97021851  0.39123954    -0.69300
O204        O  0.08785444  0.97021448  0.39123966    -0.69500
V205        V  0.02978645  0.97021749  0.32599479     1.35200
V206        V  0.02978565  0.97021650  0.38993830     1.35200
C207        C  0.10747756  0.97021485  0.35798914     0.80000
C208        C  0.95209450  0.97021937  0.35798890     0.80000
C209        C  0.02978824  0.04790854  0.35798839     0.79900
C210        C  0.02978374  0.89252543  0.35798998     0.79900
O211        O  0.02978343  0.91211589  0.67527682    -0.69300
O212        O  0.02978203  0.02831675  0.67528180    -0.69500
O213        O  0.97168227  0.97021543  0.67527862    -0.69400
O214        O  0.08788320  0.97021717  0.67527998    -0.69400
O215        O  0.08785302  0.97022254  0.60875004    -0.69300
O216        O  0.97171543  0.97021894  0.60874868    -0.69300
O217        O  0.02978256  0.02828949  0.60875185    -0.69300
O218        O  0.02978596  0.91215187  0.60874688    -0.69500
V219        V  0.02978275  0.97021638  0.67399421     1.35200
V220        V  0.02978421  0.97022064  0.61005069     1.35200
C221        C  0.02978515  0.89252700  0.64199664     0.80000
C222        C  0.02978196  0.04791006  0.64200325     0.80000
C223        C  0.95209196  0.97021679  0.64199900     0.79900
C224        C  0.10747503  0.97022023  0.64200083     0.79900
O225        O  0.63853665  0.97021886  0.05806250    -0.69300
O226        O  0.63853691  0.97021619  0.94192499    -0.69500
O227        O  0.63853923  0.91214876  0.99999622    -0.69400
O228        O  0.63853452  0.02828639  0.99999127    -0.69400
O229        O  0.70506444  0.02832077  0.99998976    -0.69300
O230        O  0.70506917  0.91211983  0.99999649    -0.69300
O231        O  0.70506684  0.97021802  0.94189265    -0.69300
O232        O  0.70506658  0.97022247  0.05809361    -0.69500
V233        V  0.63983816  0.97021759  0.99999373     1.35200
V234        V  0.70378167  0.97022024  0.99999314     1.35200
C235        C  0.67178717  0.97022150  0.07768499     0.80000
C236        C  0.67178744  0.97021613  0.92230195     0.80000
C237        C  0.67179057  0.89252737  0.99999704     0.79900
C238        C  0.67178429  0.04791047  0.99998995     0.79900
O239        O  0.42103153  0.91214977  0.99999404    -0.69300
O240        O  0.42103497  0.02828729  0.99999311    -0.69500
O241        O  0.42103497  0.97021761  0.05806243    -0.69400
O242        O  0.42103133  0.97021947  0.94192476    -0.69400
O243        O  0.35450139  0.97022215  0.94189581    -0.69300
O244        O  0.35450503  0.97021829  0.05809672    -0.69300
O245        O  0.35450503  0.02832074  0.99999674    -0.69300
O246        O  0.35450160  0.91211972  0.99999581    -0.69500
V247        V  0.41973186  0.97021857  0.99999363     1.35200
V248        V  0.35578834  0.97022021  0.99999623     1.35200
C249        C  0.38778050  0.89252786  0.99999495     0.80000
C250        C  0.38778497  0.04791095  0.99999489     0.80000
C251        C  0.38778499  0.97021749  0.07768647     0.79900
C252        C  0.38778015  0.97022118  0.92230336     0.79900
C253        C  0.02979096  0.20864411  0.35950059    -0.16000
C254        C  0.02979082  0.17178941  0.35901439     0.08100
C255        C  0.02979017  0.12863073  0.35842161     0.09900
C256        C  0.02978938  0.09177467  0.35806867    -0.16900
C257        C  0.02979132  0.32971502  0.23842746    -0.16000
C258        C  0.02979108  0.32923085  0.20157275     0.08100
C259        C  0.02979006  0.32864130  0.15841394     0.09900
C260        C  0.02978902  0.32829054  0.12155788    -0.16900
C261        C  0.02978635  0.48865185  0.35997792    -0.10800
C262        C  0.02978750  0.45178173  0.35997704    -0.12300
C263        C  0.02978244  0.84865934  0.35807065    -0.16000
C264        C  0.02978139  0.81180317  0.35842166     0.08100
C265        C  0.02978036  0.76864444  0.35901092     0.09900
C266        C  0.02978006  0.73178959  0.35949452    -0.16900
C267        C  0.02978317  0.61071407  0.23842500    -0.16000
C268        C  0.02978264  0.61119617  0.20157014     0.08100
C269        C  0.02978190  0.61178409  0.15841143     0.09900
C270        C  0.02978176  0.61213430  0.12155525    -0.16900
C271        C  0.02978713  0.33019779  0.48156517    -0.10800
C272        C  0.02978618  0.33019873  0.51843526    -0.12300
C273        C  0.02978438  0.32829183  0.87844265    -0.16000
C274        C  0.02978282  0.32864254  0.84158644     0.08100
C275        C  0.02978126  0.32923159  0.79842776     0.09900
C276        C  0.02978077  0.32971542  0.76157288    -0.16900
C277        C  0.02978186  0.20864583  0.64050063    -0.16000
C278        C  0.02978153  0.17179098  0.64098462     0.08100
C279        C  0.02978128  0.12863231  0.64157422     0.09900
C280        C  0.02978138  0.09177610  0.64192472    -0.16900
C281        C  0.02978258  0.61024105  0.51843279    -0.10800
C282        C  0.02978235  0.61024048  0.48156267    -0.12300
C283        C  0.02978452  0.45178344  0.64002150    -0.10800
C284        C  0.02978495  0.48865358  0.64002094    -0.12300
C285        C  0.02978717  0.73179128  0.64049511    -0.16000
C286        C  0.02978708  0.76864600  0.64097694     0.08100
C287        C  0.02978660  0.81180481  0.64156448     0.09900
C288        C  0.02978604  0.84866086  0.64191499    -0.16900
C289        C  0.02979008  0.61071536  0.76157045    -0.16000
C290        C  0.02979102  0.61119716  0.79842520     0.08100
C291        C  0.02979150  0.61178451  0.84158399     0.09900
C292        C  0.02979114  0.61213436  0.87844006    -0.16900
C293        C  0.79135866  0.97022662  0.35949038    -0.16000
C294        C  0.82821354  0.97022565  0.35900722     0.08100
C295        C  0.87137222  0.97022342  0.35841893     0.09900
C296        C  0.90822845  0.97022141  0.35806883    -0.16900
C297        C  0.67028314  0.97022813  0.23842078    -0.16000
C298        C  0.67076633  0.97022756  0.20156591     0.08100
C299        C  0.67135570  0.97022578  0.15840724     0.09900
C300        C  0.67170680  0.97022373  0.12155104    -0.16900
C301        C  0.54822102  0.97022209  0.35997521    -0.10800
C302        C  0.51135092  0.97022050  0.35997515    -0.12300
C303        C  0.15134369  0.97021341  0.35806935    -0.16000
C304        C  0.18819978  0.97021209  0.35842035     0.08100
C305        C  0.23135856  0.97021099  0.35900971     0.09900
C306        C  0.26821331  0.97021084  0.35949338    -0.16900
C307        C  0.38928894  0.97021646  0.23842224    -0.16000
C308        C  0.38880618  0.97021649  0.20156747     0.08100
C309        C  0.38821743  0.97021642  0.15840869     0.09900
C310        C  0.38786629  0.97021668  0.12155260    -0.16900
C311        C  0.38976227  0.97021401  0.51842999    -0.10800
C312        C  0.38976236  0.97021390  0.48155990    -0.12300
C313        C  0.38928232  0.97021932  0.76156758    -0.16000
C314        C  0.38879842  0.97022032  0.79842238     0.08100
C315        C  0.38820936  0.97022132  0.84158111     0.09900
C316        C  0.38785909  0.97022165  0.87843726    -0.16900
C317        C  0.26821081  0.97022013  0.64049613    -0.16000
C318        C  0.23135598  0.97022081  0.64098025     0.08100
C319        C  0.18819729  0.97022110  0.64157000     0.09900
C320        C  0.15134112  0.97022088  0.64192104    -0.16900
C321        C  0.66980894  0.97021907  0.51842856    -0.10800
C322        C  0.66980956  0.97022084  0.48155845    -0.12300
C323        C  0.51134847  0.97021282  0.64001481    -0.10800
C324        C  0.54821859  0.97021234  0.64001421    -0.12300
C325        C  0.79135631  0.97021443  0.64049509    -0.16000
C326        C  0.82821107  0.97021476  0.64097850     0.08100
C327        C  0.87136979  0.97021532  0.64156749     0.09900
C328        C  0.90822587  0.97021594  0.64191837    -0.16900
C329        C  0.67028134  0.97020832  0.76156628    -0.16000
C330        C  0.67076527  0.97020875  0.79842098     0.08100
C331        C  0.67135556  0.97021094  0.84157976     0.09900
C332        C  0.67170717  0.97021346  0.87843581    -0.16900
C333        C  0.38785975  0.84866169  0.99999530    -0.16000
C334        C  0.38821118  0.81180562  0.99999613     0.08100
C335        C  0.38880171  0.76864682  0.99999739     0.09900
C336        C  0.38928615  0.73179211  0.99999834    -0.16900
C337        C  0.26821313  0.61071965  0.00000326    -0.16000
C338        C  0.23135838  0.61120175  0.00000368     0.08100
C339        C  0.18819964  0.61178865  0.00000335     0.09900
C340        C  0.15134356  0.61213759  0.00000239    -0.16900
C341        C  0.54822097  0.61023953  0.99999546    -0.10800
C342        C  0.51135084  0.61023949  0.99999618    -0.12300
C343        C  0.67028699  0.73179164  0.99999587    -0.16000
C344        C  0.67077131  0.76864647  0.99999702     0.08100
C345        C  0.67136118  0.81180514  0.99999796     0.09900
C346        C  0.67171192  0.84866131  0.99999804    -0.16900
C347        C  0.79135863  0.61071656  0.99999101    -0.16000
C348        C  0.82821353  0.61119725  0.99999101     0.08100
C349        C  0.87137221  0.61178301  0.99999179     0.09900
C350        C  0.90822842  0.61213206  0.99999288    -0.16900
C351        C  0.38976185  0.45178429  0.99999888    -0.10800
C352        C  0.38976194  0.48865440  0.99999985    -0.12300
C353        C  0.26821451  0.32971495  0.99999835    -0.16000
C354        C  0.23135968  0.32923110  0.99999860     0.08100
C355        C  0.18820095  0.32864203  0.99999860     0.09900
C356        C  0.15134478  0.32829141  0.99999859    -0.16900
C357        C  0.38786654  0.09177700  0.99999460    -0.16000
C358        C  0.38821846  0.12863319  0.99999396     0.08100
C359        C  0.38880839  0.17179185  0.99999317     0.09900
C360        C  0.38929162  0.20864671  0.99999298    -0.16900
C361        C  0.66980970  0.48865410  0.99999106    -0.10800
C362        C  0.66981086  0.45178401  0.99999098    -0.12300
C363        C  0.51135214  0.33020199  0.99999216    -0.10800
C364        C  0.54822224  0.33020173  0.99999135    -0.12300
C365        C  0.79135987  0.32971529  0.99999356    -0.16000
C366        C  0.82821458  0.32923137  0.99999549     0.08100
C367        C  0.87137338  0.32864200  0.99999831     0.09900
C368        C  0.90822943  0.32829112  0.00000030    -0.16900
C369        C  0.67028170  0.20864637  0.99999241    -0.16000
C370        C  0.67076349  0.17179163  0.99999153     0.08100
C371        C  0.67135151  0.12863276  0.99999009     0.09900
C372        C  0.67170254  0.09177669  0.99998941    -0.16900
loop_ 
_geom_bond_atom_site_label_1 
_geom_bond_atom_site_label_2 
_geom_bond_distance 
_geom_bond_site_symmetry_2 
_ccdc_geom_bond_type 
O1            V9   1.900       .  S
O1           C11   1.263       .  A
O2            V9   1.900       .  S
O2           C12   1.263       .  A
O3            V9   1.900       .  S
O3           C13   1.263       .  A
O4            V9   1.900       .  S
O4           C14   1.263       .  A
O5           V10   1.900       .  S
O5           C14   1.263   1_554  A
O6           V10   1.900       .  S
O6           C13   1.263   1_554  A
O7           V10   1.900       .  S
O7           C12   1.263   1_554  A
O8           V10   1.900       .  S
O8           C11   1.263   1_554  A
V9           V10   2.091   1_556  T
C11         C365   1.434       .  S
C12         C364   1.435       .  S
C13         C362   1.435       .  S
C14         C369   1.434       .  S
O15          V23   1.900       .  S
O15          C25   1.263   1_554  A
O16          V23   1.900       .  S
O16          C26   1.263   1_554  A
O17          V23   1.900       .  S
O17          C27   1.263   1_554  A
O18          V23   1.900       .  S
O18          C28   1.263   1_554  A
O19          V24   1.900       .  S
O19          C28   1.263       .  A
O20          V24   1.900       .  S
O20          C27   1.263       .  A
O21          V24   1.900       .  S
O21          C26   1.263       .  A
O22          V24   1.900       .  S
O22          C25   1.263       .  A
V23          V24   2.091   1_554  T
C25         C353   1.434       .  S
C26         C363   1.435       .  S
C27         C351   1.435       .  S
C28         C360   1.434       .  S
O29          V37   1.900       .  S
O29          C39   1.263   1_554  A
O30          V37   1.900       .  S
O30          C40   1.263   1_554  A
O31          V37   1.900       .  S
O31          C41   1.263   1_554  A
O32          V37   1.900       .  S
O32          C42   1.263   1_554  A
O33          V38   1.900       .  S
O33          C42   1.263       .  A
O34          V38   1.900       .  S
O34          C41   1.263       .  A
O35          V38   1.900       .  S
O35          C40   1.263       .  A
O36          V38   1.900       .  S
O36          C39   1.263       .  A
V37          V38   2.091   1_554  T
C39         C347   1.434       .  S
C40         C341   1.435       .  S
C41         C361   1.435       .  S
C42         C343   1.434       .  S
O43          V51   1.900       .  S
O43          C53   1.263   1_556  A
O44          V51   1.900       .  S
O44          C54   1.263       .  A
O45          V51   1.900       .  S
O45          C55   1.263       .  A
O46          V51   1.900       .  S
O46          C56   1.263       .  A
O47          V52   1.900       .  S
O47          C56   1.263   1_554  A
O48          V52   1.900       .  S
O48          C55   1.263   1_554  A
O49          V52   1.900       .  S
O49          C54   1.263   1_554  A
O50          V52   1.900       .  S
O50          C53   1.263       .  A
V51          V52   2.091   1_556  T
C53         C337   1.434       .  S
C54         C342   1.435       .  S
C55         C352   1.435       .  S
C56         C336   1.434       .  S
O57          V65   1.900       .  S
O57          C67   1.263       .  A
O58          V65   1.900       .  S
O58          C68   1.263       .  A
O59          V65   1.900       .  S
O59          C69   1.263       .  A
O60          V65   1.900       .  S
O60          C70   1.263       .  A
O61          V66   1.900       .  S
O61          C70   1.263   1_545  A
O62          V66   1.900       .  S
O62          C69   1.263   1_545  A
O63          V66   1.900       .  S
O63          C68   1.263   1_545  A
O64          V66   1.900       .  S
O64          C67   1.263   1_545  A
V65          V66   2.091   1_565  T
C67         C325   1.434       .  S
C68         C324   1.435       .  S
C69         C321   1.435       .  S
C70         C329   1.434       .  S
O71          V79   1.900       .  S
O71          C81   1.263       .  A
O72          V79   1.900       .  S
O72          C82   1.263       .  A
O73          V79   1.900       .  S
O73          C83   1.263       .  A
O74          V79   1.900       .  S
O74          C84   1.263       .  A
O75          V80   1.900       .  S
O75          C84   1.263   1_545  A
O76          V80   1.900       .  S
O76          C83   1.263   1_545  A
O77          V80   1.900       .  S
O77          C82   1.263   1_545  A
O78          V80   1.900       .  S
O78          C81   1.263   1_545  A
V79          V80   2.091   1_565  T
C81         C313   1.434       .  S
C82         C311   1.435       .  S
C83         C323   1.435       .  S
C84         C317   1.434       .  S
O85          V93   1.900       .  S
O85          C95   1.263       .  A
O86          V93   1.900       .  S
O86          C96   1.263       .  A
O87          V93   1.900       .  S
O87          C97   1.263       .  A
O88          V93   1.900       .  S
O88          C98   1.263       .  A
O89          V94   1.900       .  S
O89          C98   1.263   1_545  A
O90          V94   1.900       .  S
O90          C97   1.263   1_545  A
O91          V94   1.900       .  S
O91          C96   1.263   1_545  A
O92          V94   1.900       .  S
O92          C95   1.263   1_545  A
V93          V94   2.091   1_565  T
C95         C306   1.434       .  S
C96         C302   1.435       .  S
C97         C312   1.435       .  S
C98         C307   1.434       .  S
O99         V107   1.900       .  S
O99         C109   1.263   1_545  A
O100        V107   1.900       .  S
O100        C110   1.263   1_545  A
O101        V107   1.900       .  S
O101        C111   1.263   1_545  A
O102        V107   1.900       .  S
O102        C112   1.263   1_545  A
O103        V108   1.900       .  S
O103        C112   1.263       .  A
O104        V108   1.900       .  S
O104        C111   1.263       .  A
O105        V108   1.900       .  S
O105        C110   1.263       .  A
O106        V108   1.900       .  S
O106        C109   1.263       .  A
V107        V108   2.091   1_545  T
C109        C293   1.434       .  S
C110        C301   1.435       .  S
C111        C322   1.435       .  S
C112        C297   1.434       .  S
O113        V121   1.900       .  S
O113        C123   1.263       .  A
O114        V121   1.900       .  S
O114        C124   1.263       .  A
O115        V121   1.900       .  S
O115        C125   1.263       .  A
O116        V121   1.900       .  S
O116        C126   1.263       .  A
O117        V122   1.900       .  S
O117        C126   1.263   1_655  A
O118        V122   1.900       .  S
O118        C125   1.263   1_655  A
O119        V122   1.900       .  S
O119        C124   1.263   1_655  A
O120        V122   1.900       .  S
O120        C123   1.263   1_655  A
V121        V122   2.091   1_455  T
C123        C285   1.434       .  S
C124        C284   1.435       .  S
C125        C281   1.435       .  S
C126        C289   1.434       .  S
O127        V135   1.900       .  S
O127        C137   1.263       .  A
O128        V135   1.900       .  S
O128        C138   1.263       .  A
O129        V135   1.900       .  S
O129        C139   1.263       .  A
O130        V135   1.900       .  S
O130        C140   1.263       .  A
O131        V136   1.900       .  S
O131        C140   1.263   1_655  A
O132        V136   1.900       .  S
O132        C139   1.263   1_655  A
O133        V136   1.900       .  S
O133        C138   1.263   1_655  A
O134        V136   1.900       .  S
O134        C137   1.263   1_655  A
V135        V136   2.091   1_455  T
C137        C276   1.434       .  S
C138        C272   1.435       .  S
C139        C283   1.435       .  S
C140        C277   1.434       .  S
O141        V149   1.900       .  S
O141        C151   1.263       .  A
O142        V149   1.900       .  S
O142        C152   1.263       .  A
O143        V149   1.900       .  S
O143        C153   1.263       .  A
O144        V149   1.900       .  S
O144        C154   1.263       .  A
O145        V150   1.900       .  S
O145        C154   1.263   1_655  A
O146        V150   1.900       .  S
O146        C153   1.263   1_655  A
O147        V150   1.900       .  S
O147        C152   1.263   1_655  A
O148        V150   1.900       .  S
O148        C151   1.263   1_655  A
V149        V150   2.091   1_455  T
C151        C267   1.434       .  S
C152        C282   1.435       .  S
C153        C261   1.435       .  S
C154        C266   1.434       .  S
O155        V163   1.900       .  S
O155        C165   1.263       .  A
O156        V163   1.900       .  S
O156        C166   1.263       .  A
O157        V163   1.900       .  S
O157        C167   1.263       .  A
O158        V163   1.900       .  S
O158        C168   1.263       .  A
O159        V164   1.900       .  S
O159        C168   1.263   1_655  A
O160        V164   1.900       .  S
O160        C167   1.263   1_655  A
O161        V164   1.900       .  S
O161        C166   1.263   1_655  A
O162        V164   1.900       .  S
O162        C165   1.263   1_655  A
V163        V164   2.091   1_455  T
C165        C253   1.434       .  S
C166        C262   1.435       .  S
C167        C271   1.435       .  S
C168        C257   1.434       .  S
O169        V177   1.899       .  S
O169        C179   1.262       .  A
O170        V177   1.899   1_654  S
O170        C180   1.262       .  A
O171        V177   1.899   1_554  S
O171        C181   1.262       .  A
O172        V177   1.899       .  S
O172        C182   1.262       .  A
O173        V178   1.900   1_556  S
O173        C182   1.263       .  A
O174        V178   1.900       .  S
O174        C181   1.263       .  A
O175        V178   1.900   1_655  S
O175        C180   1.263       .  A
O176        V178   1.900   1_556  S
O176        C179   1.263       .  A
V177        V178   2.091   1_556  T
C179        C356   1.434       .  S
C180        C368   1.434       .  S
C181        C260   1.434       .  S
C182        C273   1.434       .  S
O183        V191   1.899   1_554  S
O183        C193   1.262       .  A
O184        V191   1.899       .  S
O184        C194   1.262       .  A
O185        V191   1.899   1_554  S
O185        C195   1.262       .  A
O186        V191   1.899   1_655  S
O186        C196   1.262       .  A
O187        V192   1.900   1_655  S
O187        C196   1.263       .  A
O188        V192   1.900       .  S
O188        C195   1.263   1_556  A
O189        V192   1.900       .  S
O189        C194   1.263       .  A
O190        V192   1.900   1_554  S
O190        C193   1.263       .  A
V191        V192   2.091       .  T
C193        C270   1.434       .  S
C194        C292   1.434       .  S
C195        C340   1.434       .  S
C196        C350   1.434       .  S
O197        V205   1.900       .  S
O197        C207   1.263       .  A
O198        V205   1.900   1_655  S
O198        C208   1.263       .  A
O199        V205   1.900   1_545  S
O199        C209   1.263       .  A
O200        V205   1.900       .  S
O200        C210   1.263       .  A
O201        V206   1.899       .  S
O201        C210   1.262       .  A
O202        V206   1.899   1_545  S
O202        C209   1.262       .  A
O203        V206   1.899   1_655  S
O203        C208   1.262       .  A
O204        V206   1.899       .  S
O204        C207   1.262       .  A
V205        V206   2.091       .  T
C207        C303   1.434       .  S
C208        C296   1.434       .  S
C209        C256   1.434       .  S
C210        C263   1.434       .  S
O211        V219   1.900       .  S
O211        C221   1.263       .  A
O212        V219   1.900   1_545  S
O212        C222   1.263       .  A
O213        V219   1.900   1_655  S
O213        C223   1.263       .  A
O214        V219   1.900       .  S
O214        C224   1.263       .  A
O215        V220   1.899       .  S
O215        C224   1.262       .  A
O216        V220   1.899   1_655  S
O216        C223   1.262       .  A
O217        V220   1.899   1_545  S
O217        C222   1.262       .  A
O218        V220   1.899       .  S
O218        C221   1.262       .  A
V219        V220   2.091       .  T
C221        C288   1.434       .  S
C222        C280   1.434       .  S
C223        C328   1.434       .  S
C224        C320   1.434       .  S
O225        V233   1.899   1_554  S
O225        C235   1.262       .  A
O226        V233   1.899       .  S
O226        C236   1.262       .  A
O227        V233   1.899       .  S
O227        C237   1.262       .  A
O228        V233   1.899   1_545  S
O228        C238   1.262       .  A
O229        V234   1.900   1_545  S
O229        C238   1.263       .  A
O230        V234   1.900       .  S
O230        C237   1.263       .  A
O231        V234   1.900       .  S
O231        C236   1.263       .  A
O232        V234   1.900   1_554  S
O232        C235   1.263       .  A
V233        V234   2.091       .  T
C235        C300   1.434       .  S
C236        C332   1.434       .  S
C237        C346   1.434       .  S
C238        C372   1.434       .  S
O239        V247   1.899       .  S
O239        C249   1.262       .  A
O240        V247   1.899   1_545  S
O240        C250   1.262       .  A
O241        V247   1.899   1_554  S
O241        C251   1.262       .  A
O242        V247   1.899       .  S
O242        C252   1.262       .  A
O243        V248   1.900       .  S
O243        C252   1.263       .  A
O244        V248   1.900   1_554  S
O244        C251   1.263       .  A
O245        V248   1.900   1_545  S
O245        C250   1.263       .  A
O246        V248   1.900       .  S
O246        C249   1.263       .  A
V247        V248   2.091       .  T
C249        C333   1.434       .  S
C250        C357   1.434       .  S
C251        C310   1.434       .  S
C252        C316   1.434       .  S
C253        C254   1.205       .  T
C254        C255   1.411       .  S
C255        C256   1.205       .  T
C257        C258   1.205       .  T
C258        C259   1.411       .  S
C259        C260   1.205       .  T
C261        C262   1.206       .  T
C263        C264   1.205       .  T
C264        C265   1.411       .  S
C265        C266   1.205       .  T
C267        C268   1.205       .  T
C268        C269   1.411       .  S
C269        C270   1.205       .  T
C271        C272   1.206       .  T
C273        C274   1.205       .  T
C274        C275   1.411       .  S
C275        C276   1.205       .  T
C277        C278   1.205       .  T
C278        C279   1.411       .  S
C279        C280   1.205       .  T
C281        C282   1.206       .  T
C283        C284   1.206       .  T
C285        C286   1.205       .  T
C286        C287   1.411       .  S
C287        C288   1.205       .  T
C289        C290   1.205       .  T
C290        C291   1.411       .  S
C291        C292   1.205       .  T
C293        C294   1.205       .  T
C294        C295   1.411       .  S
C295        C296   1.205       .  T
C297        C298   1.205       .  T
C298        C299   1.411       .  S
C299        C300   1.205       .  T
C301        C302   1.206       .  T
C303        C304   1.205       .  T
C304        C305   1.411       .  S
C305        C306   1.205       .  T
C307        C308   1.205       .  T
C308        C309   1.411       .  S
C309        C310   1.205       .  T
C311        C312   1.206       .  T
C313        C314   1.205       .  T
C314        C315   1.411       .  S
C315        C316   1.205       .  T
C317        C318   1.205       .  T
C318        C319   1.411       .  S
C319        C320   1.205       .  T
C321        C322   1.206       .  T
C323        C324   1.206       .  T
C325        C326   1.205       .  T
C326        C327   1.411       .  S
C327        C328   1.205       .  T
C329        C330   1.205       .  T
C330        C331   1.411       .  S
C331        C332   1.205       .  T
C333        C334   1.205       .  T
C334        C335   1.411       .  S
C335        C336   1.205       .  T
C337        C338   1.205       .  T
C338        C339   1.411       .  S
C339        C340   1.205       .  T
C341        C342   1.206       .  T
C343        C344   1.205       .  T
C344        C345   1.411       .  S
C345        C346   1.205       .  T
C347        C348   1.205       .  T
C348        C349   1.411       .  S
C349        C350   1.205       .  T
C351        C352   1.206       .  T
C353        C354   1.205       .  T
C354        C355   1.411       .  S
C355        C356   1.205       .  T
C357        C358   1.205       .  T
C358        C359   1.411       .  S
C359        C360   1.205       .  T
C361        C362   1.206       .  T
C363        C364   1.206       .  T
C365        C366   1.205       .  T
C366        C367   1.411       .  S
C367        C368   1.205   1_556  T
C369        C370   1.205       .  T
C370        C371   1.411       .  S
C371        C372   1.205       .  T
