geometry optimzed in LAMMPS
_audit_creation_date              2020-11-30 
_audit_creation_method            'lammps2cif' 
_symmetry_space_group_name_H-M    'P1' 
_symmetry_Int_Tables_number       1 
_symmetry_cell_setting            triclinic 
loop_ 
_symmetry_equiv_pos_as_xyz 
  x,y,z 
_cell_length_a                    41.37758095215113 
_cell_length_b                    41.49981338226999 
_cell_length_c                    41.37203895230125 
_cell_angle_alpha                 89.81371758406068 
_cell_angle_beta                  89.9087426743289 
_cell_angle_gamma                 89.4787573253248 
loop_ 
_atom_site_label 
_atom_site_type_symbol 
_atom_site_fract_x 
_atom_site_fract_y 
_atom_site_fract_z 
_atom_site_charge 
Fe1        Fe  0.08480809  0.66968175  0.39591868     1.65780
Fe2        Fe  0.16138798  0.67176077  0.37229250     1.73250
Fe3        Fe  0.13869433  0.71126332  0.43983721     1.54420
O4          O  0.09099342  0.73119987  0.44610977    -0.81900
O5          O  0.18671395  0.64968049  0.40812608    -0.80210
O6          O  0.07353790  0.71645407  0.39948713    -0.84410
O7          O  0.07938458  0.65873093  0.44620102    -0.79260
O8          O  0.15712063  0.74781147  0.41003425    -0.81040
O9          O  0.14165090  0.62681956  0.36173178    -0.83780
C10         C  0.09859685  0.66003647  0.47053479     0.96980
C11         C  0.06737852  0.72557246  0.42738125     1.04420
O12         O  0.12840941  0.68343356  0.40307015    -1.12770
O13         O  0.13682489  0.69513451  0.33647747    -0.75200
O14         O  0.08584793  0.68121005  0.34612839    -0.78680
O15         O  0.12452749  0.67590997  0.47032484    -0.79370
C16         C  0.10695359  0.69696574  0.32999084     0.95890
O17         O  0.09728149  0.62177140  0.39149550    -0.77330
O18         O  0.18641613  0.71449097  0.37913431    -0.82520
C19         C  0.19595276  0.66413957  0.43327386     0.98510
C20         C  0.18107297  0.74238476  0.39098559     1.04430
O21         O  0.18451327  0.69125033  0.44240226    -0.78170
C22         C  0.12062783  0.60951892  0.37590967     1.02730
Fe23       Fe  0.40939753  0.66828866  0.54665833     1.65780
Fe24       Fe  0.33344258  0.68317078  0.57078488     1.73250
Fe25       Fe  0.36085167  0.71873198  0.50303749     1.54420
O26         O  0.40711842  0.73954603  0.50297235    -0.81900
O27         O  0.30882503  0.66030559  0.53565146    -0.80210
O28         O  0.43622878  0.70662717  0.53466543    -0.84410
O29         O  0.41136739  0.65168822  0.49858331    -0.79260
O30         O  0.34066699  0.75596348  0.53077403    -0.81040
O31         O  0.34890247  0.63871565  0.58799534    -0.83780
C32         C  0.39728250  0.66125446  0.47272972     0.96980
C33         C  0.43395967  0.72939777  0.51458192     1.04420
O34         O  0.36856945  0.69061616  0.54007622    -1.12770
O35         O  0.35959745  0.70618930  0.60495756    -0.75200
O36         O  0.40965040  0.68646097  0.59508166    -0.78680
O37         O  0.37808711  0.68510810  0.47169433    -0.79370
C38         C  0.38956421  0.70389063  0.61159955     0.95890
O39         O  0.38868046  0.62458525  0.55610682    -0.77330
O40         O  0.30824146  0.72542463  0.56008788    -0.82520
C41         C  0.30272597  0.67217483  0.50804642     0.98510
C42         C  0.31481804  0.75221310  0.54705037     1.04430
O43         O  0.31589519  0.69769509  0.49693246    -0.78170
C44         C  0.36531925  0.61714770  0.57386358     1.02730
Fe45       Fe  0.17549288  0.90765887  0.56290682     1.65780
Fe46       Fe  0.19346145  0.88376801  0.63877209     1.73250
Fe47       Fe  0.23551352  0.94392881  0.60352424     1.54420
O48         O  0.25517635  0.93454544  0.55802487    -0.81900
O49         O  0.18044104  0.92328157  0.66581941    -0.80210
O50         O  0.20889969  0.92654578  0.53299316    -0.84410
O51         O  0.15736144  0.95427154  0.56995580    -0.79260
O52         O  0.27068903  0.91533888  0.62616233    -0.81040
O53         O  0.14441916  0.87555869  0.63130193    -0.83780
C54         C  0.17413784  0.97901924  0.57721771     0.96980
C55         C  0.23803820  0.93461606  0.53259600     1.04420
O56         O  0.20146649  0.91170218  0.60183635    -1.12770
O57         O  0.20924694  0.84622839  0.60942104    -0.75200
O58         O  0.19758079  0.86162503  0.55790170    -0.78680
O59         O  0.20423586  0.97738698  0.58361559    -0.79370
C60         C  0.21250232  0.84350769  0.57863785     0.95890
O61         O  0.13285759  0.89087260  0.58204381    -0.77330
O62         O  0.23919014  0.88691500  0.65849621    -0.82520
C63         C  0.19552985  0.94997006  0.66705400     0.98510
C64         C  0.26634790  0.89887706  0.65174347     1.04430
O65         O  0.21818592  0.95741563  0.64770529    -0.78170
C66         C  0.12396756  0.88049964  0.60913692     1.02730
Fe67       Fe  0.18129006  0.05975892  0.88877912     1.65780
Fe68       Fe  0.19293628  0.08658603  0.81327266     1.73250
Fe69       Fe  0.23295936  0.02034594  0.83798379     1.54410
O70         O  0.25054123  0.01481513  0.88568669    -0.81900
O71         O  0.17378505  0.05104403  0.78614037    -0.80210
O72         O  0.22270879  0.05169830  0.91278775    -0.84410
O73         O  0.16802230  0.01008920  0.88861322    -0.79260
O74         O  0.26972126  0.05041572  0.82190597    -0.81040
O75         O  0.14636596  0.09819195  0.82785359    -0.83780
C76         C  0.17595972  0.98674023  0.86973025     0.96980
C77         C  0.24081436  0.02730981  0.91213182     1.04420
O78         O  0.20269372  0.05562208  0.84723369    -1.12770
O79         O  0.21243646  0.12143735  0.84066470    -0.75200
O80         O  0.19589102  0.10897514  0.89088333    -0.78680
O81         O  0.19882472  0.98867183  0.84963692    -0.79370
C82         C  0.21190361  0.12662010  0.87086384     0.95890
O83         O  0.13581544  0.06752425  0.86998930    -0.77330
O84         O  0.23763439  0.08059350  0.79079054    -0.82520
C85         C  0.19036061  0.02702526  0.77711600     0.98510
C86         C  0.26523136  0.06846301  0.79720963     1.04430
O87         O  0.21611834  0.01748281  0.79111651    -0.78170
C88         C  0.12647714  0.08384765  0.84603730     1.02730
Fe89       Fe  0.41841191  0.07536531  0.65469314     1.65780
Fe90       Fe  0.39870382  0.15205775  0.67010450     1.73250
Fe91       Fe  0.46272833  0.11722907  0.70894673     1.54420
O92         O  0.45341735  0.07322408  0.73241811    -0.81900
O93         O  0.43708881  0.17498234  0.65109268    -0.80210
O94         O  0.43205917  0.04752691  0.69078791    -0.84410
O95         O  0.46565876  0.07406507  0.63606129    -0.79260
O96         O  0.43779067  0.14257916  0.74475334    -0.81040
O97         O  0.38426352  0.14222302  0.62309652    -0.83780
C98         C  0.49214033  0.08096206  0.65022428     0.96980
C99         C  0.44366142  0.04769486  0.71864378     1.04420
O100        O  0.42666883  0.11470690  0.67817427    -1.12770
O101        O  0.36146412  0.12721098  0.69040643    -0.75200
O102        O  0.37127548  0.07566653  0.67628743    -0.78680
O103        O  0.49334901  0.09390536  0.67786331    -0.79370
C104        C  0.35543545  0.09718050  0.69260481     0.95890
O105        O  0.40646538  0.09563350  0.61171498    -0.77330
O106        O  0.40757770  0.17390424  0.71386200    -0.82520
C107        C  0.46551034  0.17670202  0.66246454     0.98510
C108        C  0.42140650  0.16824023  0.74055670     1.04430
O109        O  0.47603492  0.15976565  0.68620218    -0.78170
C110        C  0.39357415  0.12149084  0.60280207     1.02730
Fe111      Fe  0.57634687  0.39454440  0.65640228     1.65780
Fe112      Fe  0.60026943  0.31810297  0.66476455     1.73250
Fe113      Fe  0.53096909  0.34275767  0.69954711     1.54420
O114        O  0.52436143  0.39079218  0.71735200    -0.81900
O115        O  0.56615179  0.29246147  0.64159541    -0.80210
O116        O  0.57017880  0.41089995  0.70143386    -0.84410
O117        O  0.52615946  0.39948759  0.64275793    -0.79260
O118        O  0.55915628  0.32571170  0.73824226    -0.81040
O119        O  0.61437254  0.33601792  0.61980804    -0.83780
C120        C  0.50163308  0.38057122  0.64477376     0.96980
C121        C  0.54224314  0.41510700  0.71198997     1.04420
O122        O  0.56887887  0.35185458  0.67300485    -1.12770
O123        O  0.63414543  0.34323720  0.68917790    -0.75200
O124        O  0.62568130  0.39340454  0.67124442    -0.78680
O125        O  0.50158694  0.35567520  0.66246140    -0.79370
C126        C  0.64098421  0.37291073  0.68907153     0.95890
O127        O  0.58373248  0.37887566  0.60967744    -0.77330
O128        O  0.59016272  0.29389410  0.70771971    -0.82520
C129        C  0.54044813  0.28362650  0.65539253     0.98510
C130        C  0.57659439  0.30028026  0.73463223     1.04430
O131        O  0.52934821  0.29641982  0.68118027    -0.78170
C132        C  0.59997351  0.35479560  0.60005716     1.02730
Fe133      Fe  0.58569412  0.16938735  0.89422050     1.65780
Fe134      Fe  0.66214510  0.17975041  0.87355711     1.73250
Fe135      Fe  0.63459883  0.21329436  0.94234097     1.54420
O136        O  0.58552275  0.22973380  0.94729733    -0.81900
O137        O  0.68699242  0.15636175  0.90925562    -0.80210
O138        O  0.56972016  0.21472813  0.89997815    -0.84410
O139        O  0.57927802  0.15543085  0.94364210    -0.79260
O140        O  0.65271343  0.25298889  0.91627950    -0.81040
O141        O  0.64584860  0.13420831  0.85827005    -0.83780
C142        C  0.59741115  0.15728201  0.96873073     0.96980
C143        C  0.56264540  0.22241755  0.92816391     1.04420
O144        O  0.62753277  0.18688225  0.90371418    -1.12770
O145        O  0.63662562  0.20494532  0.83899047    -0.75200
O146        O  0.58798194  0.18291787  0.84504101    -0.78680
O147        O  0.62164354  0.17548972  0.97023840    -0.79370
C148        C  0.60699648  0.20299522  0.83138633     0.95890
O149        O  0.60236973  0.12299104  0.88721706    -0.77330
O150        O  0.68484975  0.22292449  0.88529478    -0.82520
C151        C  0.69345297  0.16907006  0.93631971     0.98510
C152        C  0.67875390  0.24949121  0.89965790     1.04430
O153        O  0.68117980  0.19571383  0.94569589    -0.78170
C154        C  0.62627428  0.11378916  0.87038249     1.02730
Fe155      Fe  0.90757309  0.15743135  0.05006981     1.65780
Fe156      Fe  0.83223582  0.17129035  0.07857903     1.73250
Fe157      Fe  0.85917414  0.21161779  0.01216803     1.54420
O158        O  0.90310087  0.23601579  0.01814180    -0.81900
O159        O  0.80301930  0.15510426  0.04291679    -0.80210
O160        O  0.93326669  0.19315230  0.02970159    -0.84410
O161        O  0.90171240  0.13748815  0.00341623    -0.79260
O162        O  0.83374875  0.24638224  0.03874718    -0.81040
O163        O  0.84316064  0.12355948  0.08786719    -0.83780
C164        C  0.89230441  0.15312255  0.97827493     0.96980
C165        C  0.93041150  0.22155251  0.01943450     1.04420
O166        O  0.86621708  0.18016138  0.04693381    -1.12770
O167        O  0.86215600  0.18895687  0.11369963    -0.75200
O168        O  0.91312670  0.18148777  0.09573527    -0.78680
O169        O  0.88144318  0.18173347  0.98001325    -0.79370
C170        C  0.89240766  0.19478031  0.11519331     0.95890
O171        O  0.89111625  0.11362252  0.06764495    -0.77330
O172        O  0.81004346  0.21565808  0.07518778    -0.82520
C173        C  0.79938326  0.16585550  0.01438152     0.98510
C174        C  0.81198502  0.24199254  0.05995180     1.04430
O175        O  0.81651023  0.18808223  0.00171930    -0.78170
C176        C  0.86518797  0.10387267  0.08012674     1.02730
Fe177      Fe  0.67768188  0.39931666  0.06384778     1.65780
Fe178      Fe  0.68429000  0.37681908  0.14025763     1.73250
Fe179      Fe  0.72215845  0.44349709  0.11558399     1.54410
O180        O  0.74164795  0.44735727  0.06768172    -0.81900
O181        O  0.66067632  0.41238732  0.16446485    -0.80210
O182        O  0.72361862  0.40212292  0.04872645    -0.84410
O183        O  0.66756476  0.44966990  0.05673668    -0.79260
O184        O  0.75903073  0.41415263  0.13492994    -0.81040
O185        O  0.64096891  0.36261566  0.11978733    -0.83780
C186        C  0.67127102  0.47473842  0.07453825     0.96980
C187        C  0.73454933  0.42959169  0.04361323     1.04420
O188        O  0.69426663  0.40708157  0.10646934    -1.12770
O189        O  0.70948818  0.34242473  0.11617311    -0.75200
O190        O  0.68959471  0.34922986  0.06652986    -0.78680
O191        O  0.68738400  0.47439840  0.10043086    -0.79370
C192        C  0.70849192  0.33463877  0.08660912     0.95890
O193        O  0.63019954  0.39639100  0.08021150    -0.77330
O194        O  0.72577662  0.38625591  0.16615520    -0.82520
C195        C  0.67495536  0.43771212  0.17338080     0.98510
C196        C  0.75365692  0.39748133  0.16048779     1.04430
O197        O  0.70157348  0.44744700  0.16122005    -0.78170
C198        C  0.62089727  0.37998591  0.10429053     1.02730
Fe199      Fe  0.68262027  0.56808208  0.38041518     1.65780
Fe200      Fe  0.69444546  0.58268288  0.30244420     1.73250
Fe201      Fe  0.72711931  0.51664502  0.33592614     1.54410
O202        O  0.74181606  0.51457728  0.38538997    -0.81900
O203        O  0.67129233  0.54570917  0.28043308    -0.80210
O204        O  0.72756074  0.56323301  0.39775707    -0.84410
O205        O  0.66848589  0.51927859  0.39010455    -0.79260
O206        O  0.76664361  0.54278769  0.31919298    -0.81040
O207        O  0.64906904  0.60022463  0.31736225    -0.83780
C208        C  0.67060412  0.49309818  0.37354973     0.96980
C209        C  0.73551214  0.53568455  0.40676696     1.04420
O210        O  0.70043344  0.55538631  0.33956203    -1.12770
O211        O  0.71944205  0.61810929  0.32537262    -0.75200
O212        O  0.69633253  0.61658348  0.37407785    -0.78680
O213        O  0.68899533  0.48993369  0.34935579    -0.79370
C214        C  0.71746720  0.62770558  0.35440694     0.95890
O215        O  0.63690014  0.57469600  0.36280798    -0.77330
O216        O  0.73820446  0.56863307  0.28122038    -0.82520
C217        C  0.68460835  0.51842863  0.27589400     0.98510
C218        C  0.76474159  0.55680430  0.29167062     1.04430
O219        O  0.71148503  0.51039007  0.28883548    -0.78170
C220        C  0.62837012  0.59033542  0.33793011     1.02730
Fe221      Fe  0.92730067  0.57026217  0.15918787     1.65780
Fe222      Fe  0.89995383  0.64551362  0.17444418     1.73250
Fe223      Fe  0.96627059  0.61762934  0.21294044     1.54410
O224        O  0.96374719  0.57253103  0.23589630    -0.81900
O225        O  0.93545603  0.67222054  0.15370148    -0.80210
O226        O  0.94496066  0.54311473  0.19544426    -0.84410
O227        O  0.97426582  0.57367491  0.14018939    -0.79260
O228        O  0.93785975  0.63899352  0.24891753    -0.81040
O229        O  0.88470568  0.63243263  0.12841538    -0.83780
C230        C  0.99947758  0.58542139  0.15340312     0.96980
C231        C  0.95856073  0.54551888  0.22242860     1.04420
O232        O  0.93130811  0.61082847  0.18221447    -1.12770
O233        O  0.86662985  0.61688419  0.19690700    -0.75200
O234        O  0.88052498  0.56648848  0.18064956    -0.78680
O235        O  0.99880617  0.59909468  0.18079743    -0.79370
C236        C  0.86346878  0.58628135  0.19788673     0.95890
O237        O  0.91234133  0.58906134  0.11593399    -0.77330
O238        O  0.90841406  0.67013005  0.21714461    -0.82520
C239        C  0.96289372  0.67733899  0.16646318     0.98510
C240        C  0.92193698  0.66486530  0.24406392     1.04430
O241        O  0.97385198  0.66190137  0.19101282    -0.78170
C242        C  0.89529854  0.61275355  0.10758181     1.02730
Fe243      Fe  0.06922540  0.89311158  0.14987469     1.65780
Fe244      Fe  0.10170999  0.82000746  0.16573701     1.73250
Fe245      Fe  0.03537618  0.84505099  0.20700938     1.54410
O246        O  0.03895783  0.89027073  0.22945388    -0.81900
O247        O  0.06699062  0.79048318  0.14859355    -0.80210
O248        O  0.05218387  0.91996634  0.18667791    -0.84410
O249        O  0.02179376  0.88672125  0.13371581    -0.79260
O250        O  0.06498330  0.82354891  0.24185310    -0.81040
O251        O  0.11266242  0.83188297  0.11853264    -0.83780
C252        C  0.99788533  0.87500088  0.14923843     0.96980
C253        C  0.04178006  0.91738635  0.21513079     1.04420
O254        O  0.06871222  0.85292638  0.17438831    -1.12770
O255        O  0.13493371  0.85082837  0.18435800    -0.75200
O256        O  0.11657794  0.90007337  0.16873623    -0.78680
O257        O  0.00058608  0.86294100  0.17725012    -0.79370
C258        C  0.13608418  0.88150741  0.18472986     0.95890
O259        O  0.08241850  0.87367979  0.10607647    -0.77330
O260        O  0.09789155  0.79691478  0.20956719    -0.82520
C261        C  0.03982177  0.78483504  0.16169444     0.98510
C262        C  0.08427683  0.80017206  0.23667779     1.04430
O263        O  0.02775047  0.80082299  0.18527192    -0.78170
C264        C  0.09889806  0.84955618  0.09778098     1.02730
Fe265      Fe  0.31049684  0.89797808  0.37686241     1.65780
Fe266      Fe  0.30326589  0.87800505  0.29973240     1.73250
Fe267      Fe  0.26473188  0.94373307  0.32726725     1.54420
O268        O  0.24672938  0.94692960  0.37556329    -0.81900
O269        O  0.32542506  0.91514775  0.27635076    -0.80210
O270        O  0.26452798  0.90042128  0.39178737    -0.84410
O271        O  0.32038384  0.94817429  0.38446871    -0.79260
O272        O  0.22798505  0.91497242  0.30958416    -0.81040
O273        O  0.34882800  0.86429810  0.31776063    -0.83780
C274        C  0.31595887  0.97356894  0.36701000     0.96980
C275        C  0.25387813  0.92768223  0.39850661     1.04420
O276        O  0.29362491  0.90702057  0.33462316    -1.12770
O277        O  0.27954627  0.84210947  0.32403868    -0.75200
O278        O  0.29969647  0.84839307  0.37357456    -0.78680
O279        O  0.29967395  0.97359456  0.34127481    -0.79370
C280        C  0.28077884  0.83419272  0.35373231     0.95890
O281        O  0.35767850  0.89396325  0.36113841    -0.77330
O282        O  0.26004682  0.88846784  0.27545402    -0.82520
C283        C  0.31121753  0.94169123  0.27017838     0.98510
C284        C  0.23263571  0.90089284  0.28254702     1.04430
O285        O  0.28316668  0.94879110  0.28101152    -0.78170
C286        C  0.36822748  0.87775167  0.33742874     1.02730
Fe287      Fe  0.31338644  0.06286359  0.06409493     1.65780
Fe288      Fe  0.30301028  0.09019237  0.13931668     1.73250
Fe289      Fe  0.26990308  0.02066710  0.11804355     1.54420
O290        O  0.25246529  0.01249459  0.07036603    -0.81900
O291        O  0.32749624  0.05714920  0.16671462    -0.80210
O292        O  0.26901389  0.05630572  0.04556632    -0.84410
O293        O  0.32541463  0.01251111  0.06089206    -0.79260
O294        O  0.23082054  0.04899066  0.13243929    -0.81040
O295        O  0.34764218  0.10446933  0.12036291    -0.83780
C296        C  0.32224215  0.98891756  0.08084635     0.96980
C297        C  0.25713209  0.02865928  0.04452345     1.04420
O298        O  0.29574760  0.05768824  0.10695148    -1.12770
O299        O  0.27692276  0.12157705  0.11133186    -0.75200
O300        O  0.30005498  0.11247537  0.06332426    -0.78680
O301        O  0.30766656  0.99173059  0.10748957    -0.79370
C302        C  0.27888928  0.12676053  0.08113986     0.95890
O303        O  0.35939245  0.06987860  0.08128638    -0.77330
O304        O  0.26046325  0.07994729  0.16443788    -0.82520
C305        C  0.31469864  0.03095748  0.17564708     0.98510
C306        C  0.23400132  0.06598667  0.15787147     1.04430
O307        O  0.28775497  0.02107025  0.16474602    -0.78170
C308        C  0.36811372  0.08861379  0.10359463     1.02730
Fe309      Fe  0.41146157  0.29711415  0.90724673     1.65780
Fe310      Fe  0.33828390  0.28696439  0.87389551     1.73250
Fe311      Fe  0.35804865  0.24614917  0.94230607     1.54410
O312        O  0.40263451  0.22123569  0.94343511    -0.81900
O313        O  0.30954670  0.30821331  0.90734697    -0.80210
O314        O  0.43575321  0.25838330  0.92344868    -0.84410
O315        O  0.40603524  0.31397082  0.95473029    -0.79260
O316        O  0.33783121  0.21176243  0.91240867    -0.81040
O317        O  0.35478418  0.33241627  0.86092170    -0.83780
C318        C  0.39020562  0.30229498  0.97850473     0.96980
C319        C  0.43083646  0.23209885  0.93770949     1.04420
O320        O  0.36972684  0.27621777  0.90778101    -1.12770
O321        O  0.36813109  0.26523097  0.84150670    -0.75200
O322        O  0.41785124  0.27854830  0.85939618    -0.78680
O323        O  0.37433057  0.27654313  0.97645720    -0.79370
C324        C  0.39883329  0.26433069  0.83929962     0.95890
O325        O  0.39386156  0.34150337  0.89524033    -0.77330
O326        O  0.31209101  0.24507194  0.87956421    -0.82520
C327        C  0.30128382  0.29588360  0.93415309     0.98510
C328        C  0.31447876  0.21793669  0.89348133     1.04430
O329        O  0.31407026  0.27043199  0.94640570    -0.78170
C330        C  0.37233651  0.35159181  0.87647940     1.02730
Fe331      Fe  0.08726230  0.29983091  0.05617112     1.65780
Fe332      Fe  0.16529805  0.29046818  0.07325115     1.73250
Fe333      Fe  0.13516974  0.25653918  0.00669702     1.54410
O334        O  0.08677155  0.23936172  0.00440268    -0.81900
O335        O  0.18758604  0.31426289  0.03674017    -0.80210
O336        O  0.06876193  0.25564267  0.05136845    -0.84410
O337        O  0.07823883  0.31359775  0.00714948    -0.79260
O338        O  0.15375663  0.21779691  0.03351344    -0.81040
O339        O  0.14831723  0.33502773  0.08995535    -0.83780
C340        C  0.09534560  0.31155596  0.98125877     0.96980
C341        C  0.06333190  0.24493963  0.02372172     1.04420
O342        O  0.12903691  0.28255969  0.04514110    -1.12770
O343        O  0.14262555  0.26523423  0.10865730    -0.75200
O344        O  0.09249168  0.28484278  0.10531479    -0.78680
O345        O  0.12021310  0.29383244  0.97891709    -0.79370
C346        C  0.11335260  0.26518991  0.11771958     0.95890
O347        O  0.10488848  0.34577635  0.06078493    -0.77330
O348        O  0.18906610  0.24777518  0.06040560    -0.82520
C349        C  0.19438083  0.30071658  0.01018236     0.98510
C350        C  0.18065950  0.22093081  0.04834925     1.04430
O351        O  0.18136328  0.27456756  0.00086481    -0.78170
C352        C  0.12940909  0.35503832  0.07612608     1.02730
Fe353      Fe  0.91549830  0.38986293  0.29040066     1.65780
Fe354      Fe  0.89427340  0.31357376  0.27889050     1.73250
Fe355      Fe  0.96285201  0.34067648  0.24460849     1.54420
O356        O  0.96856430  0.38953396  0.22924028    -0.81900
O357        O  0.93041174  0.28779840  0.30039350    -0.80210
O358        O  0.92204085  0.40727648  0.24576856    -0.84410
O359        O  0.96483598  0.39423807  0.30524895    -0.79260
O360        O  0.93619237  0.32394723  0.20462888    -0.81040
O361        O  0.88059041  0.32822341  0.32521491    -0.83780
C362        C  0.98967202  0.37554118  0.30279168     0.96980
C363        C  0.95014234  0.41302605  0.23692076     1.04420
O364        O  0.92430370  0.34811455  0.27166360    -1.12770
O365        O  0.85844329  0.33971324  0.25654727    -0.75200
O366        O  0.86682505  0.38935397  0.27560756    -0.78680
O367        O  0.99110150  0.35236465  0.28298747    -0.79370
C368        C  0.85148236  0.36955901  0.25772385     0.95890
O369        O  0.90734227  0.37281564  0.33657017    -0.77330
O370        O  0.90428887  0.29245759  0.23436202    -0.82520
C371        C  0.95726444  0.28157928  0.28702781     0.98510
C372        C  0.91786916  0.29922330  0.20752261     1.04430
O373        O  0.96566321  0.29370821  0.26010855    -0.78170
C374        C  0.89248670  0.34781346  0.34549168     1.02730
Fe375      Fe  0.08118672  0.07385080  0.29352957     1.65780
Fe376      Fe  0.10243523  0.14961246  0.28170033     1.73250
Fe377      Fe  0.03536665  0.12229847  0.24641354     1.54420
O378        O  0.03292512  0.07377395  0.22930532    -0.81900
O379        O  0.06684366  0.17371795  0.30500311    -0.80210
O380        O  0.07848956  0.05524607  0.24897586    -0.84410
O381        O  0.03109137  0.06644385  0.30434740    -0.79260
O382        O  0.06335664  0.13991139  0.20826480    -0.81040
O383        O  0.11795713  0.13174553  0.32642005    -0.83780
C384        C  0.00561561  0.08379873  0.29966266     0.96980
C385        C  0.05141483  0.05007179  0.23680729     1.04420
O386        O  0.07249240  0.11515594  0.27419759    -1.12770
O387        O  0.13612073  0.12436151  0.25659493    -0.75200
O388        O  0.13109875  0.07717785  0.28191047    -0.78680
O389        O  0.00544332  0.10870420  0.28213755    -0.79370
C390        C  0.14332009  0.09478884  0.25947076     0.95890
O391        O  0.08442614  0.09295720  0.33943315    -0.77330
O392        O  0.09157650  0.17369030  0.23870389    -0.82520
C393        C  0.04004776  0.18045869  0.29176146     0.98510
C394        C  0.07985997  0.16558985  0.21153818     1.04430
O395        O  0.03066462  0.16838328  0.26501301    -0.78170
C396        C  0.10178006  0.11648788  0.34760615     1.02730
Fe397      Fe  0.81321048  0.55717698  0.56484091     1.65780
Fe398      Fe  0.80063485  0.58377349  0.64085904     1.73250
Fe399      Fe  0.75654086  0.52247509  0.61235655     1.54420
O400        O  0.73337121  0.52883621  0.56780741    -0.81900
O401        O  0.81832508  0.54576198  0.66671758    -0.80210
O402        O  0.77595210  0.54179904  0.53803453    -0.84410
O403        O  0.82915715  0.50914471  0.56836243    -0.79260
O404        O  0.72321808  0.55258868  0.63487488    -0.81040
O405        O  0.84778669  0.59510610  0.62784434    -0.83780
C406        C  0.81265426  0.48521002  0.57853401     0.96980
C407        C  0.74756235  0.53170057  0.54066986     1.04420
O408        O  0.79014567  0.55445428  0.60575853    -1.12770
O409        O  0.78157266  0.61976268  0.61255633    -0.75200
O410        O  0.79396652  0.60482845  0.56129303    -0.78680
O411        O  0.78559955  0.48862336  0.59240203    -0.79370
C412        C  0.77989423  0.62370726  0.58188446     0.95890
O413        O  0.85775807  0.56980565  0.58254191    -0.77330
O414        O  0.75728782  0.57842583  0.66584481    -0.82520
C415        C  0.80367912  0.51929385  0.67128385     0.98510
C416        C  0.72952582  0.56675273  0.66116745     1.04430
O417        O  0.77816242  0.51110352  0.65605708    -0.78170
C418        C  0.86750434  0.58515246  0.60669483     1.02730
Fe419      Fe  0.81536563  0.41200180  0.88897278     1.65780
Fe420      Fe  0.80088904  0.37897970  0.81589935     1.73250
Fe421      Fe  0.76114392  0.44750379  0.83884416     1.54420
O422        O  0.73693506  0.44461737  0.88359885    -0.81900
O423        O  0.81756094  0.41227669  0.78412864    -0.80210
O424        O  0.77950304  0.43319565  0.91413048    -0.84410
O425        O  0.83508568  0.45799915  0.87988566    -0.79260
O426        O  0.72596915  0.41968244  0.81625520    -0.81040
O427        O  0.84864074  0.36926448  0.82744482    -0.83780
C428        C  0.82027732  0.48273320  0.86827531     0.96980
C429        C  0.75100020  0.44328548  0.91099722     1.04420
O430        O  0.79236293  0.41279003  0.84784692    -1.12770
O431        O  0.78288409  0.34602512  0.84815608    -0.75200
O432        O  0.79243431  0.36649837  0.89776583    -0.78680
O433        O  0.79163625  0.48114715  0.85761304    -0.79370
C434        C  0.77941945  0.34549211  0.87883229     0.95890
O435        O  0.85898356  0.39362188  0.87306162    -0.77330
O436        O  0.75657570  0.38231987  0.79348142    -0.82520
C437        C  0.80622340  0.44019974  0.77828311     0.98510
C438        C  0.73045970  0.39835040  0.79471656     1.04430
O439        O  0.78420184  0.45424928  0.79491508    -0.78170
C440        C  0.86849237  0.37845288  0.84853514     1.02730
Fe441      Fe  0.56877196  0.57242840  0.79958317     1.65780
Fe442      Fe  0.59995420  0.64576145  0.78283444     1.73250
Fe443      Fe  0.53312476  0.62036309  0.74351102     1.54410
O444        O  0.53516955  0.57458103  0.72157018    -0.81900
O445        O  0.56536634  0.67503297  0.80107369    -0.80210
O446        O  0.55045915  0.54531660  0.76389051    -0.84410
O447        O  0.52121798  0.57884116  0.81748147    -0.79260
O448        O  0.56277128  0.63983983  0.70771910    -0.81040
O449        O  0.61237304  0.63366824  0.83010467    -0.83780
C450        C  0.49663002  0.59060180  0.80255137     0.96980
C451        C  0.53833569  0.54759845  0.73615066     1.04420
O452        O  0.56720856  0.61263362  0.77525353    -1.12770
O453        O  0.63340936  0.61499749  0.76350663    -0.75200
O454        O  0.61564781  0.56556292  0.77845381    -0.78680
O455        O  0.49910543  0.60371143  0.77493237    -0.79370
C456        C  0.63506281  0.58431701  0.76277438     0.95890
O457        O  0.58403966  0.59123361  0.84287212    -0.77330
O458        O  0.59430741  0.66929110  0.73861229    -0.82520
C459        C  0.53802785  0.68078346  0.78840618     0.98510
C460        C  0.58068152  0.66415958  0.71177932     1.04430
O461        O  0.52624200  0.66529490  0.76450610    -0.78170
C462        C  0.60099904  0.61475522  0.85117084     1.02730
Fe463      Fe  0.41497022  0.89057966  0.79824791     1.65780
Fe464      Fe  0.39293925  0.81427641  0.78457659     1.73250
Fe465      Fe  0.45647508  0.84587124  0.74369345     1.54410
O466        O  0.44808352  0.88982070  0.71978365    -0.81900
O467        O  0.43111669  0.78984914  0.80340260    -0.80210
O468        O  0.43029078  0.91729457  0.76211172    -0.84410
O469        O  0.46245199  0.88960579  0.81669655    -0.79260
O470        O  0.42990125  0.82145512  0.70886329    -0.81040
O471        O  0.37916376  0.82595968  0.83145429    -0.83780
C472        C  0.48830888  0.88191657  0.80134746     0.96980
C473        C  0.44084790  0.91610533  0.73388057     1.04420
O474        O  0.42160261  0.85032560  0.77549938    -1.12770
O475        O  0.35641426  0.84052077  0.76385221    -0.75200
O476        O  0.36824520  0.89214063  0.77590144    -0.78680
O477        O  0.48799569  0.86821963  0.77399179    -0.79370
C478        C  0.35238503  0.87080386  0.75974100     0.95890
O479        O  0.40100510  0.87257168  0.84171564    -0.77330
O480        O  0.40050422  0.79114792  0.74105596    -0.82520
C481        C  0.45906973  0.78701279  0.79086085     0.98510
C482        C  0.41300456  0.79653394  0.71369070     1.04430
O483        O  0.46898629  0.80320437  0.76649076    -0.78170
C484        C  0.38713430  0.84761540  0.85117235     1.02730
Fe485      Fe  0.58844089  0.80057947  0.55654779     1.65780
Fe486      Fe  0.66538973  0.79122149  0.57706844     1.73250
Fe487      Fe  0.63908481  0.75752551  0.50857446     1.54420
O488        O  0.59098612  0.73997313  0.50386496    -0.81900
O489        O  0.69016887  0.81511570  0.54181692    -0.80210
O490        O  0.57173766  0.75581057  0.55030604    -0.84410
O491        O  0.58176958  0.81439464  0.50692160    -0.79260
O492        O  0.65740911  0.71839617  0.53531344    -0.81040
O493        O  0.64740992  0.83551517  0.59331084    -0.83780
C494        C  0.59954837  0.81201274  0.48147094     0.96980
C495        C  0.56694537  0.74619008  0.52218820     1.04420
O496        O  0.63087659  0.78367069  0.54698025    -1.12770
O497        O  0.64100730  0.76519252  0.61106634    -0.75200
O498        O  0.59122622  0.78541679  0.60583442    -0.78680
O499        O  0.62483298  0.79475235  0.48025021    -0.79370
C500        C  0.61126609  0.76513628  0.61848448     0.95890
O501        O  0.60460858  0.84718443  0.56368796    -0.77330
O502        O  0.68936191  0.74891305  0.56535323    -0.82520
C503        C  0.69809640  0.80173140  0.51538763     0.98510
C504        C  0.68272957  0.72188511  0.55268357     1.04430
O505        O  0.68525249  0.77589958  0.50506883    -0.78170
C506        C  0.62849646  0.85616824  0.58038976     1.02730
Fe507      Fe  0.91045352  0.80076401  0.40388666     1.65780
Fe508      Fe  0.83676227  0.78788637  0.37317293     1.73250
Fe509      Fe  0.86122246  0.74578052  0.43835263     1.54420
O510        O  0.90693831  0.72304327  0.43715328    -0.81900
O511        O  0.80971862  0.80839066  0.40866749    -0.80210
O512        O  0.93744001  0.76279706  0.41809329    -0.84410
O513        O  0.90726527  0.81498471  0.45259629    -0.79260
O514        O  0.84235316  0.71233847  0.40627346    -0.81040
O515        O  0.85252212  0.83329052  0.35896981    -0.83780
C516        C  0.89473651  0.80006458  0.47660911     0.96980
C517        C  0.93435109  0.73596433  0.43193694     1.04420
O518        O  0.86995567  0.77799849  0.40545468    -1.12770
O519        O  0.86581932  0.76547331  0.34015952    -0.75200
O520        O  0.91515089  0.78311183  0.35532508    -0.78680
O521        O  0.87815304  0.77479952  0.47353829    -0.79370
C522        C  0.89653393  0.76549378  0.33761720     0.95890
O523        O  0.89020775  0.84515571  0.39369914    -0.77330
O524        O  0.81060224  0.74605377  0.37968822    -0.82520
C525        C  0.80295423  0.79448434  0.43526844     0.98510
C526        C  0.81692694  0.71810096  0.39014290     1.04430
O527        O  0.81635924  0.76822054  0.44509705    -0.78170
C528        C  0.86870381  0.85399733  0.37417015     1.02730
Fe529      Fe  0.16262989  0.78620738  0.87283707     1.65780
Fe530      Fe  0.08573791  0.80386634  0.89169547     1.73250
Fe531      Fe  0.12329308  0.74229053  0.92980514     1.54410
O532        O  0.14602773  0.70791072  0.90071267    -0.81900
O533        O  0.08772261  0.81953083  0.94025952    -0.80210
O534        O  0.18059470  0.74007389  0.87632499    -0.84410
O535        O  0.18676540  0.79708714  0.91406488    -0.79260
O536        O  0.07792183  0.72417586  0.91853479    -0.81040
O537        O  0.10649677  0.84633133  0.87997514    -0.83780
C538        C  0.18733834  0.77938011  0.93915671     0.96980
C539        C  0.17285918  0.71242157  0.88644898     1.04420
O540        O  0.12391573  0.77750113  0.89820256    -1.12770
O541        O  0.08480849  0.78338848  0.84429844    -0.75200
O542        O  0.13721426  0.77339979  0.83237991    -0.78680
O543        O  0.16714732  0.75732443  0.94536290    -0.79370
C544        C  0.10706280  0.76873841  0.82773525     0.95890
O545        O  0.15620338  0.83502083  0.86544838    -0.77330
O546        O  0.05519693  0.77037880  0.90452970    -0.82520
C547        C  0.09396605  0.80225172  0.96537803     0.98510
C548        C  0.05330098  0.74162603  0.91283526     1.04430
O549        O  0.10308729  0.77295977  0.96329184    -0.78170
C550        C  0.13394686  0.85504551  0.87127845     1.02730
Fe551      Fe  0.33014466  0.78524621  0.08541187     1.65780
Fe552      Fe  0.40255704  0.80419188  0.05523027     1.73250
Fe553      Fe  0.35717866  0.75223766  0.01613134     1.54410
O554        O  0.32726945  0.71993878  0.04016436    -0.81900
O555        O  0.39119507  0.82800940  0.01160507    -0.80210
O556        O  0.32401377  0.73636661  0.09097356    -0.84410
O557        O  0.29365169  0.78631619  0.05211098    -0.79260
O558        O  0.39848223  0.72647889  0.02748934    -0.81040
O559        O  0.38389442  0.84312804  0.08073544    -0.83780
C560        C  0.29355576  0.78537270  0.02148499     0.96980
C561        C  0.31588522  0.71722360  0.06859207     1.04420
O562        O  0.36280057  0.78038383  0.05240017    -1.12770
O563        O  0.41232021  0.77588975  0.09671014    -0.75200
O564        O  0.36526396  0.78348357  0.12109721    -0.78680
O565        O  0.31769362  0.77832225  0.00398505    -0.79370
C566        C  0.39186945  0.76794697  0.11857285     0.95890
O567        O  0.33158322  0.83446732  0.08017230    -0.77330
O568        O  0.42759970  0.77121562  0.02923314    -0.82520
C569        C  0.38564287  0.81217452  0.98564128     0.98510
C570        C  0.42525192  0.74116686  0.02580917     1.04430
O571        O  0.38342677  0.78167914  0.98593214    -0.78170
C572        C  0.35513234  0.85369850  0.07977417     1.02730
Fe573      Fe  0.29522568  0.57596721  0.81005858     1.65780
Fe574      Fe  0.31118206  0.55214421  0.88673785     1.73250
Fe575      Fe  0.26210269  0.50675833  0.83894358     1.54410
O576        O  0.22390221  0.53044477  0.81527580    -0.81900
O577        O  0.33471854  0.50754604  0.88419581    -0.80210
O578        O  0.25049246  0.56899980  0.78949112    -0.84410
O579        O  0.31481514  0.54079758  0.78200879    -0.79260
O580        O  0.23805648  0.50912595  0.88319376    -0.81040
O581        O  0.35355459  0.57117791  0.86925678    -0.83780
C582        C  0.30612073  0.51178821  0.77892614     0.96980
C583        C  0.22563645  0.55185722  0.79323416     1.04420
O584        O  0.28913775  0.54506380  0.84544015    -1.12770
O585        O  0.28591610  0.59655044  0.89005067    -0.75200
O586        O  0.27566985  0.61143449  0.83849381    -0.78680
O587        O  0.28404614  0.49884868  0.79568001    -0.79370
C588        C  0.27242281  0.61504912  0.86891341     0.95890
O589        O  0.34193881  0.58820588  0.82044867    -0.77330
O590        O  0.27606130  0.53171672  0.91318129    -0.82520
C591        C  0.32476527  0.48083932  0.87288021     0.98510
C592        C  0.25029527  0.51619742  0.91034579     1.04430
O593        O  0.29768424  0.47770506  0.85877510    -0.78170
C594        C  0.36210110  0.58316223  0.84269375     1.02730
Fe595      Fe  0.30201409  0.38061498  0.63509413     1.65780
Fe596      Fe  0.31464966  0.41337312  0.56146247     1.73250
Fe597      Fe  0.26260398  0.44968329  0.61365258     1.54410
O598        O  0.22723196  0.42117173  0.63530724    -0.81900
O599        O  0.33172947  0.46113671  0.56509140    -0.80210
O600        O  0.25857876  0.38591676  0.66060104    -0.84410
O601        O  0.32255438  0.41374777  0.66327477    -0.79260
O602        O  0.23829318  0.45027791  0.56891856    -0.81040
O603        O  0.35907574  0.40081872  0.57998968    -0.83780
C604        C  0.31139211  0.44129296  0.67023113     0.96980
C605        C  0.23186668  0.40106403  0.65813515     1.04420
O606        O  0.29256234  0.41454378  0.60299885    -1.12770
O607        O  0.29483784  0.36607365  0.55566369    -0.75200
O608        O  0.28098413  0.34811626  0.60537646    -0.78680
O609        O  0.28666261  0.45444124  0.65703949    -0.79370
C610        C  0.27954441  0.34664646  0.57471542     0.95890
O611        O  0.34896849  0.36842858  0.62065716    -0.77330
O612        O  0.27652542  0.43021571  0.53649624    -0.82520
C613        C  0.31849406  0.48553001  0.57878831     0.98510
C614        C  0.25034187  0.44522180  0.54090583     1.04430
O615        O  0.29335775  0.48301039  0.59589635    -0.78170
C616        C  0.36872709  0.38353991  0.60302876     1.02730
Fe617      Fe  0.89461002  0.14623733  0.77651145     1.65780
Fe618      Fe  0.92360007  0.07177567  0.79140146     1.73250
Fe619      Fe  0.96378962  0.11971947  0.74143092     1.54420
O620        O  0.94111423  0.15102020  0.70933736    -0.81900
O621        O  0.96795356  0.07886317  0.81556629    -0.80210
O622        O  0.89195164  0.16035899  0.72873530    -0.84410
O623        O  0.92913138  0.17952462  0.78551080    -0.79260
O624        O  0.95234581  0.07989373  0.71360322    -0.81040
O625        O  0.89920377  0.08681056  0.83262538    -0.83780
C626        C  0.95974534  0.17910287  0.78418303     0.96980
C627        C  0.91402799  0.16546848  0.70808570     1.04420
O628        O  0.92718761  0.11314052  0.76979163    -1.12770
O629        O  0.88124168  0.06544236  0.76284852    -0.75200
O630        O  0.85804680  0.11381394  0.76815163    -0.78680
O631        O  0.97624638  0.15781596  0.76930799    -0.79370
C632        C  0.85950689  0.08631399  0.75464060     0.95890
O633        O  0.89445705  0.13915086  0.82532101    -0.78070
O634        O  0.94913329  0.04858564  0.75706039    -0.82520
C635        C  0.99416646  0.08347545  0.79961825     0.98510
C636        C  0.95235448  0.05233785  0.72709975     1.04430
O637        O  0.99357788  0.09191909  0.77008678    -0.78170
C638        C  0.89477951  0.11482953  0.84364062     1.02730
Fe639      Fe  0.09925330  0.31828336  0.78098805     1.65780
Fe640      Fe  0.07272028  0.39232074  0.79795138     1.73250
Fe641      Fe  0.03124545  0.34796848  0.74616209     1.54420
O642        O  0.05387572  0.31597756  0.71362839    -0.81900
O643        O  0.02875661  0.38297511  0.82233750    -0.80210
O644        O  0.10347582  0.30788421  0.73243910    -0.84410
O645        O  0.06395139  0.28492758  0.78628103    -0.79260
O646        O  0.04386369  0.38935058  0.72009947    -0.81040
O647        O  0.09860179  0.37446018  0.83699842    -0.83780
C648        C  0.03335358  0.28641253  0.78588624     0.96980
C649        C  0.08119917  0.30152048  0.71239595     1.04420
O650        O  0.06809211  0.35245965  0.77441500    -1.12770
O651        O  0.11502306  0.39948333  0.76973742    -0.75200
O652        O  0.13720921  0.35066268  0.77578746    -0.78680
O653        O  0.01737386  0.30927224  0.77285745    -0.79370
C654        C  0.13722450  0.37867112  0.76281489     0.95890
O655        O  0.09509325  0.32230049  0.83047589    -0.77330
O656        O  0.04678614  0.41786996  0.76534016    -0.82520
C657        C  0.00232365  0.37811674  0.80687435     0.98510
C658        C  0.04432884  0.41619525  0.73512392     1.04430
O659        O  0.00216576  0.37574304  0.77619362    -0.78170
C660        C  0.09592730  0.34653722  0.84873732     1.02730
Fe661      Fe  0.16331901  0.18005678  0.57711440     1.65780
Fe662      Fe  0.08730279  0.16397920  0.55388152     1.73250
Fe663      Fe  0.12836840  0.22287392  0.51617447     1.54420
O664        O  0.15241373  0.25738250  0.54370675    -0.81900
O665        O  0.09183507  0.14692996  0.50600340    -0.80210
O666        O  0.18353760  0.22518192  0.57272613    -0.84410
O667        O  0.18995269  0.16651426  0.53817513    -0.79260
O668        O  0.08404481  0.24404527  0.52632476    -0.81040
O669        O  0.10672951  0.12114502  0.56816957    -0.83780
C670        C  0.19166831  0.18244363  0.51200131     0.96980
C671        C  0.17837484  0.25218612  0.55935625     1.04420
O672        O  0.12637561  0.18904132  0.54916296    -1.12770
O673        O  0.08375757  0.18430607  0.60127009    -0.75200
O674        O  0.13539930  0.19497472  0.61519230    -0.78680
O675        O  0.17145794  0.20381737  0.50289934    -0.79370
C676        C  0.10493060  0.19748889  0.61995855     0.95890
O677        O  0.15513937  0.13195232  0.58605115    -0.77330
O678        O  0.05846043  0.19885496  0.53789957    -0.82520
C679        C  0.09881449  0.16363939  0.48082479     0.98510
C680        C  0.05850302  0.22779230  0.52951686     1.04430
O681        O  0.10724954  0.19297999  0.48280288    -0.78170
C682        C  0.13331882  0.11208611  0.57945020     1.02730
Fe683      Fe  0.33050608  0.17488885  0.36990663     1.65780
Fe684      Fe  0.40449281  0.15462888  0.39527266     1.73250
Fe685      Fe  0.36592593  0.21811059  0.42915109     1.54410
O686        O  0.34352554  0.25238108  0.39895338    -0.81900
O687        O  0.40114193  0.14244676  0.44438827    -0.80210
O688        O  0.30919422  0.21977029  0.37563312    -0.84410
O689        O  0.30493597  0.16076991  0.40921525    -0.79260
O690        O  0.41223977  0.23562879  0.41910350    -0.81040
O691        O  0.38068562  0.11278896  0.38811513    -0.83780
C692        C  0.30231224  0.17855608  0.43409725     0.96980
C693        C  0.31585100  0.24729938  0.38662871     1.04420
O694        O  0.36721970  0.18274296  0.39817801    -1.12770
O695        O  0.40777521  0.16975228  0.34603888    -0.75200
O696        O  0.35889917  0.19134522  0.33312969    -0.78680
O697        O  0.32160578  0.20115892  0.44168793    -0.79370
C698        C  0.38943730  0.18882603  0.32919740     0.95890
O699        O  0.33915205  0.12682757  0.35861160    -0.77330
O700        O  0.43535005  0.18929075  0.40496670    -0.82520
C701        C  0.39266021  0.16004135  0.46831494     0.98510
C702        C  0.43699483  0.21840715  0.41238558     1.04430
O703        O  0.38428710  0.18933175  0.46511795    -0.78170
C704        C  0.35600150  0.10546542  0.37258416     1.02730
Fe705      Fe  0.79617877  0.87837047  0.14245793     1.65780
Fe706      Fe  0.81481639  0.90049846  0.06698730     1.73250
Fe707      Fe  0.75650882  0.93991062  0.10468875     1.54410
O708        O  0.72179473  0.91577560  0.13267370    -0.81900
O709        O  0.83685812  0.94502615  0.07633399    -0.80210
O710        O  0.74842644  0.87466750  0.15540062    -0.84410
O711        O  0.80090273  0.91750317  0.17250960    -0.79260
O712        O  0.73659558  0.92428586  0.06132748    -0.81040
O713        O  0.85325867  0.87573165  0.08583958    -0.83780
C714        C  0.79105344  0.94649803  0.16921794     0.96980
C715        C  0.72375395  0.89278555  0.15319575     1.04420
O716        O  0.78893330  0.90613940  0.10556360    -1.12770
O717        O  0.78802230  0.85798155  0.06098012    -0.75200
O718        O  0.79032649  0.83882492  0.11190629    -0.78680
O719        O  0.77467149  0.95678349  0.14559525    -0.79370
C720        C  0.77895628  0.83800049  0.08303405     0.95890
O721        O  0.84568247  0.87967008  0.13813910    -0.77330
O722        O  0.78450917  0.92508296  0.03830548    -0.82520
C723        C  0.82020060  0.97112575  0.07999325     0.98510
C724        C  0.75442237  0.92476708  0.03637949     1.04430
O725        O  0.78919668  0.97075361  0.08112610    -0.78170
C726        C  0.86404791  0.87622985  0.11409623     1.02730
Fe727      Fe  0.80626968  0.08975588  0.30519053     1.65780
Fe728      Fe  0.81710149  0.06106610  0.38016581     1.73250
Fe729      Fe  0.76739994  0.02277526  0.32849262     1.54410
O730        O  0.73001864  0.05372124  0.31398494    -0.81900
O731        O  0.82948448  0.01037876  0.38049625    -0.80210
O732        O  0.76110805  0.08423080  0.28286456    -0.84410
O733        O  0.82571533  0.05521700  0.27671586    -0.79260
O734        O  0.75032532  0.01564081  0.37575987    -0.81040
O735        O  0.86272532  0.06736697  0.36214407    -0.83780
C736        C  0.80871229  0.03209496  0.26728283     0.96980
C737        C  0.73382945  0.07129306  0.28882905     1.04420
O738        O  0.79705573  0.05777119  0.33823998    -1.12770
O739        O  0.80361369  0.11083641  0.38296471    -0.75200
O740        O  0.78629979  0.12449002  0.33342254    -0.78680
O741        O  0.78379272  0.02195838  0.28201194    -0.79370
C742        C  0.78727815  0.12915744  0.36365750     0.95890
O743        O  0.85342234  0.09909940  0.32007763    -0.77330
O744        O  0.77412998  0.05538053  0.40106083    -0.82520
C745        C  0.82317413  0.98712724  0.36090918     0.98510
C746        C  0.75900546  0.02949318  0.40159117     1.04430
O747        O  0.80228448  0.99015931  0.33886688    -0.78170
C748        C  0.87268898  0.08356971  0.33840479     1.02730
Fe749      Fe  0.59765716  0.81649442  0.27866865     1.65780
Fe750      Fe  0.57472388  0.89136312  0.29676352     1.73250
Fe751      Fe  0.53788363  0.85411688  0.23653780     1.54420
O752        O  0.56419696  0.82555984  0.20309494    -0.81900
O753        O  0.52877292  0.88194612  0.31644453    -0.80210
O754        O  0.60593273  0.80527551  0.23068779    -0.84410
O755        O  0.55940687  0.78601164  0.27904420    -0.79260
O756        O  0.55403475  0.89795679  0.21748432    -0.81040
O757        O  0.59805148  0.87072201  0.33586024    -0.83780
C758        C  0.53035488  0.78880019  0.26962505     0.96980
C759        C  0.58822225  0.80600179  0.20562855     1.04420
O760        O  0.57027379  0.85335161  0.27003672    -1.12770
O761        O  0.61854324  0.89770649  0.27212725    -0.75200
O762        O  0.63750154  0.84719002  0.27724844    -0.78680
O763        O  0.51939429  0.81298266  0.25431794    -0.79370
C764        C  0.63881633  0.87536877  0.26442837     0.95890
O765        O  0.58972845  0.81948368  0.32823960    -0.77330
O766        O  0.55219694  0.92131002  0.26540014    -0.82520
C767        C  0.50368172  0.87886379  0.29835695     0.98510
C768        C  0.55155173  0.92296145  0.23515406     1.04430
O769        O  0.50596504  0.87839490  0.26749136    -0.78170
C770        C  0.59322241  0.84300182  0.34709474     1.02730
Fe771      Fe  0.39213127  0.64096227  0.27004231     1.65780
Fe772      Fe  0.42651406  0.57220386  0.29571261     1.73250
Fe773      Fe  0.46099250  0.61205837  0.23617519     1.54420
O774        O  0.43503299  0.63737792  0.20052093    -0.81900
O775        O  0.46882150  0.58864221  0.31731285    -0.80210
O776        O  0.38598904  0.64587282  0.22057384    -0.84410
O777        O  0.42438999  0.67739899  0.26928075    -0.79260
O778        O  0.44947207  0.56620382  0.21769182    -0.81040
O779        O  0.39813896  0.59145750  0.33210316    -0.83780
C780        C  0.45478428  0.67838541  0.26553191     0.96980
C781        C  0.40768969  0.65179431  0.19961559     1.04420
O782        O  0.42642021  0.60933255  0.26719193    -1.12770
O783        O  0.38628335  0.55800039  0.26929588    -0.75200
O784        O  0.35821786  0.60437862  0.27037328    -0.78680
O785        O  0.47239067  0.65548510  0.25498770    -0.79370
C786        C  0.36254332  0.57569090  0.26006239     0.95890
O787        O  0.39697153  0.64280935  0.31966878    -0.77330
O788        O  0.45579027  0.54606686  0.26647270    -0.82520
C789        C  0.49440952  0.59283789  0.30025001     0.98510
C790        C  0.45195262  0.54209396  0.23679779     1.04430
O791        O  0.49372338  0.59270197  0.26933604    -0.78170
C792        C  0.39778653  0.62058038  0.34056838     1.02730
Fe793      Fe  0.19816669  0.57638617  0.14537150     1.65780
Fe794      Fe  0.18756163  0.55830047  0.06780505     1.73250
Fe795      Fe  0.23841125  0.51345741  0.11397062     1.54420
O796        O  0.27565224  0.54360859  0.12917836    -0.81900
O797        O  0.17504681  0.50832876  0.06334198    -0.80210
O798        O  0.24380490  0.56885671  0.16477369    -0.84410
O799        O  0.18038231  0.53660783  0.16839748    -0.79260
O800        O  0.25225318  0.50906781  0.06488575    -0.81040
O801        O  0.14138139  0.56410078  0.08525799    -0.83780
C802        C  0.19763816  0.51165107  0.17314976     0.96980
C803        C  0.27145327  0.55789007  0.15637095     1.04420
O804        O  0.20768508  0.54949108  0.10873447    -1.12770
O805        O  0.19995711  0.60756495  0.07062563    -0.75200
O806        O  0.21633111  0.61509856  0.12167697    -0.78680
O807        O  0.22585161  0.50921923  0.16161236    -0.79370
C808        C  0.21560924  0.62335357  0.09210565     0.95890
O809        O  0.15127742  0.58771456  0.13202031    -0.77330
O810        O  0.23192357  0.55447007  0.04876069    -0.82520
C811        C  0.18001603  0.48370557  0.08186692     0.98510
C812        C  0.24241973  0.52709484  0.04210237     1.04430
O813        O  0.20205960  0.48296020  0.10315105    -0.78170
C814        C  0.13176950  0.57820663  0.11052171     1.02730
Fe815      Fe  0.18572836  0.37565361  0.31560675     1.65780
Fe816      Fe  0.17556314  0.40440316  0.38989041     1.73250
Fe817      Fe  0.21966349  0.44626355  0.33624880     1.54410
O818        O  0.25941319  0.41806229  0.32263974    -0.81900
O819        O  0.16055689  0.45451145  0.39026894    -0.80210
O820        O  0.23025042  0.38376057  0.29338319    -0.84410
O821        O  0.16377693  0.40820688  0.28632394    -0.79260
O822        O  0.23512323  0.45666604  0.38461703    -0.81040
O823        O  0.12952728  0.39642715  0.37340963    -0.83780
C824        C  0.17952206  0.43148046  0.27491615     0.96980
C825        C  0.25675452  0.39820015  0.29914968     1.04420
O826        O  0.19318185  0.40895477  0.34721461    -1.12770
O827        O  0.19134529  0.35538085  0.39319448    -0.75200
O828        O  0.20929468  0.34293335  0.34383359    -0.78680
O829        O  0.20373808  0.44407159  0.28895143    -0.79370
C830        C  0.20967652  0.33894939  0.37412119     0.95890
O831        O  0.13933416  0.36373208  0.33222341    -0.77330
O832        O  0.22021905  0.41162670  0.40645815    -0.82520
C833        C  0.16256586  0.47718527  0.36894982     0.98510
C834        C  0.22906467  0.43996189  0.40977090     1.04430
O835        O  0.18168691  0.47530136  0.34520676    -0.78170
C836        C  0.11979043  0.37937948  0.35021780     1.02730
Fe837      Fe  0.82890418  0.28270954  0.58093876     1.65780
Fe838      Fe  0.90118797  0.30353332  0.55083131     1.73250
Fe839      Fe  0.85900495  0.24791124  0.51338138     1.54410
O840        O  0.82934319  0.21489173  0.53671040    -0.81900
O841        O  0.89042474  0.32528195  0.50593469    -0.80210
O842        O  0.81965314  0.23417106  0.58561504    -0.84410
O843        O  0.79506978  0.28751050  0.54588518    -0.79260
O844        O  0.90147433  0.22418438  0.52810093    -0.81040
O845        O  0.88281763  0.34292133  0.57484954    -0.83780
C846        C  0.79688542  0.28717082  0.51527092     0.96980
C847        C  0.81484835  0.21345426  0.56372423     1.04420
O848        O  0.86238964  0.27799248  0.54871510    -1.12770
O849        O  0.91099985  0.27809044  0.59399347    -0.75200
O850        O  0.86218172  0.27870001  0.61759029    -0.78680
O851        O  0.81900280  0.27283059  0.49931803    -0.79370
C852        C  0.89168921  0.26975021  0.61683179     0.95890
O853        O  0.83124247  0.33162925  0.57891895    -0.77330
O854        O  0.92655190  0.27079319  0.52562035    -0.82520
C855        C  0.88847538  0.30795605  0.48037108     0.98510
C856        C  0.92720648  0.24081963  0.52893265     1.04430
O857        O  0.88443412  0.27757459  0.48217441    -0.78170
C858        C  0.85382388  0.35178821  0.57784521     1.02730
Fe859      Fe  0.66696701  0.29423577  0.37057793     1.65780
Fe860      Fe  0.59044808  0.30804853  0.39468338     1.73250
Fe861      Fe  0.63551545  0.25485588  0.43533748     1.54420
O862        O  0.66828397  0.22332209  0.41314205    -0.81900
O863        O  0.59558121  0.32901973  0.44086296    -0.80210
O864        O  0.68389581  0.24714495  0.36775566    -0.84410
O865        O  0.69661291  0.30322137  0.40826369    -0.79260
O866        O  0.59589154  0.22838282  0.42054642    -0.81040
O867        O  0.60669505  0.35035612  0.37408286    -0.83780
C868        C  0.69401294  0.29912023  0.43852484     0.96980
C869        C  0.68614585  0.22426688  0.38814740     1.04420
O870        O  0.63138079  0.28523149  0.39973672    -1.12770
O871        O  0.58641892  0.28383014  0.35009035    -0.75200
O872        O  0.63730133  0.28506169  0.33129043    -0.78680
O873        O  0.67279069  0.28156925  0.45187497    -0.79370
C874        C  0.60815054  0.27524440  0.32947975     0.95890
O875        O  0.65927050  0.34332086  0.37214827    -0.77330
O876        O  0.56496472  0.27218734  0.41528835    -0.82520
C877        C  0.59891357  0.31184647  0.46648402     0.98510
C878        C  0.56837619  0.24233118  0.41963121     1.04430
O879        O  0.60580138  0.28202833  0.46478519    -0.78170
C880        C  0.63483586  0.36159217  0.37349725     1.02730
Fe881      Fe  0.60014273  0.15186635  0.16853859     1.65780
Fe882      Fe  0.57141505  0.07823235  0.15323771     1.73250
Fe883      Fe  0.53299389  0.12435064  0.20616481     1.54420
O884        O  0.55706062  0.15452730  0.23846855    -0.81900
O885        O  0.52713721  0.08782524  0.13000294    -0.80210
O886        O  0.60470577  0.16534935  0.21648062    -0.84410
O887        O  0.56487906  0.18555951  0.16155051    -0.79260
O888        O  0.54680853  0.08239133  0.23166072    -0.81040
O889        O  0.59702739  0.09370384  0.11322018    -0.83780
C890        C  0.53437035  0.18532539  0.16454864     0.96980
C891        C  0.58367287  0.16967741  0.23852038     1.04420
O892        O  0.56836725  0.11885833  0.17614766    -1.12770
O893        O  0.61365434  0.07008073  0.18058013    -0.75200
O894        O  0.63737153  0.11832031  0.17586419    -0.78680
O895        O  0.51884565  0.16408909  0.18036132    -0.79370
C896        C  0.63643551  0.08970757  0.18749847     0.95890
O897        O  0.59661977  0.14615935  0.11912018    -0.77330
O898        O  0.54516398  0.05443991  0.18649999    -0.82520
C899        C  0.50117341  0.09149291  0.14672172     0.98510
C900        C  0.54709934  0.05558697  0.21663443     1.04430
O901        O  0.50202266  0.09848081  0.17673529    -0.78170
C902        C  0.59628819  0.12162769  0.10125766     1.02730
Fe903      Fe  0.39190095  0.31496145  0.17151267     1.65780
Fe904      Fe  0.41539633  0.39078017  0.16126620     1.73250
Fe905      Fe  0.45792722  0.34050116  0.20986751     1.54410
O906        O  0.43020175  0.31669146  0.24434506    -0.81900
O907        O  0.46376982  0.39347961  0.14400969    -0.80210
O908        O  0.40447229  0.28548360  0.21028894    -0.84410
O909        O  0.42711833  0.29339673  0.14530760    -0.79260
O910        O  0.45451058  0.38385689  0.23566833    -0.81040
O911        O  0.40641996  0.37226468  0.11697041    -0.83780
C912        C  0.45487943  0.28714581  0.15689998     0.96980
C913        C  0.41657739  0.29021634  0.23789182     1.04420
O914        O  0.42198910  0.34934330  0.18134365    -1.12770
O915        O  0.36695722  0.38986095  0.18101021    -0.75200
O916        O  0.35917675  0.33905707  0.19867693    -0.78680
O917        O  0.46552905  0.29854435  0.18361886    -0.79370
C918        C  0.35197613  0.36896615  0.19888563     0.95890
O919        O  0.37236063  0.33475159  0.12982761    -0.77330
O920        O  0.42702537  0.41460575  0.20069843    -0.82520
C921        C  0.48970204  0.38032692  0.15493457     0.98510
C922        C  0.44274072  0.41081753  0.22632894     1.04430
O923        O  0.48955443  0.36155434  0.17909187    -0.78170
C924        C  0.38738438  0.35064899  0.10869784     1.02730
Fe925      Fe  0.83428584  0.68342597  0.87078575     1.65780
Fe926      Fe  0.90587213  0.66460491  0.90514656     1.73250
Fe927      Fe  0.85613296  0.71439750  0.94309553     1.54410
O928        O  0.82596009  0.74738691  0.92019802    -0.81900
O929        O  0.89367615  0.63961977  0.94806151    -0.80210
O930        O  0.82152233  0.73220339  0.86922133    -0.84410
O931        O  0.79825210  0.67521730  0.90243845    -0.79260
O932        O  0.89677217  0.74181842  0.93333083    -0.81040
O933        O  0.89144723  0.62491504  0.87872502    -0.83780
C934        C  0.79615445  0.67498489  0.93297797     0.96980
C935        C  0.81417432  0.75125574  0.89220312     1.04420
O936        O  0.86482788  0.68742688  0.90598636    -1.12770
O937        O  0.91679983  0.69352766  0.86383180    -0.75200
O938        O  0.86993589  0.69112819  0.83707257    -0.78680
O939        O  0.81702544  0.68643858  0.95225606    -0.79370
C940        C  0.89784323  0.70312592  0.84099545     0.95890
O941        O  0.83977089  0.63418020  0.86916787    -0.77330
O942        O  0.92742337  0.69775742  0.93351545    -0.82520
C943        C  0.88676306  0.65485352  0.97416865     0.98510
C944        C  0.92427496  0.72790816  0.93418434     1.04430
O945        O  0.88239793  0.68513444  0.97388173    -0.78170
C946        C  0.86355644  0.61501691  0.87167741     1.02730
Fe947      Fe  0.66429484  0.67968465  0.07765678     1.65780
Fe948      Fe  0.59036269  0.65668191  0.05842394     1.73250
Fe949      Fe  0.62285811  0.71607328  0.01677940     1.54420
O950        O  0.65212951  0.75098495  0.03874974    -0.81900
O951        O  0.59962277  0.63545023  0.01273782    -0.80210
O952        O  0.67105521  0.72828387  0.08385770    -0.84410
O953        O  0.69352197  0.67950151  0.03786327    -0.79260
O954        O  0.57976687  0.73468067  0.03560266    -0.81040
O955        O  0.61413719  0.61991186  0.08239092    -0.83780
C956        C  0.68814006  0.68418254  0.00793297     0.96980
C957        C  0.67046087  0.75123272  0.06355521     1.04420
O958        O  0.62654006  0.68469954  0.05106210    -1.12770
O959        O  0.58380825  0.68379762  0.10106790    -0.75200
O960        O  0.63461991  0.68096816  0.11863713    -0.78680
O961        O  0.66280047  0.69723722  0.99678084    -0.79370
C962        C  0.60627497  0.69371640  0.11993220     0.95890
O963        O  0.66452552  0.62991684  0.07156273    -0.77330
O964        O  0.55903596  0.68581228  0.03592653    -0.82520
C965        C  0.60018325  0.65286859  0.98685653     0.98510
C966        C  0.55567191  0.71578149  0.03672793     1.04430
O967        O  0.59750115  0.68354125  0.98835978    -0.78170
C968        C  0.64209850  0.60988506  0.07559105     1.02730
Fe969      Fe  0.69154460  0.87590578  0.81246008     1.65780
Fe970      Fe  0.67206524  0.90845164  0.88404563     1.73250
Fe971      Fe  0.72470074  0.94570377  0.83716175     1.54410
O972        O  0.75775552  0.92045522  0.80886338    -0.81900
O973        O  0.64830205  0.95243040  0.87221488    -0.80210
O974        O  0.74102673  0.86999603  0.80460156    -0.84410
O975        O  0.68981460  0.90770322  0.77569058    -0.79260
O976        O  0.74991202  0.93526238  0.87912429    -0.81040
O977        O  0.63303639  0.88255247  0.86667224    -0.83780
C978        C  0.69014140  0.93810638  0.77418300     0.96980
C979        C  0.76096833  0.89220835  0.79749359     1.04420
O980        O  0.69622360  0.90991644  0.84401423    -1.12770
O981        O  0.70021779  0.86656228  0.89461604    -0.75200
O982        O  0.69236286  0.84129583  0.84820002    -0.78680
O983        O  0.69941408  0.95653225  0.79668974    -0.79370
C984        C  0.70714512  0.84358578  0.87496247     0.95890
O985        O  0.64209586  0.88112017  0.81429062    -0.77330
O986        O  0.70469518  0.93525091  0.90800934    -0.82520
C987        C  0.66416790  0.97828444  0.86608304     0.98510
C988        C  0.73494666  0.93686928  0.90590655     1.04430
O989        O  0.69461642  0.97747483  0.86164407    -0.78170
C990        C  0.62269094  0.88212398  0.83793165     1.02730
Fe991      Fe  0.69560255  0.08212238  0.63991200     1.65780
Fe992      Fe  0.67352243  0.06198778  0.56566978     1.73250
Fe993      Fe  0.73198675  0.01923203  0.60104317     1.54420
O994        O  0.76767560  0.04178898  0.62934887    -0.81900
O995        O  0.65148849  0.01688351  0.57532648    -0.80210
O996        O  0.74465344  0.08678963  0.64822803    -0.84410
O997        O  0.69390691  0.04382202  0.67027430    -0.79260
O998        O  0.75189418  0.03252330  0.55680861    -0.81040
O999        O  0.63625327  0.08672061  0.58786729    -0.83780
C1000       C  0.69822324  0.01392012  0.66597915     0.96980
C1001       C  0.76800698  0.06657062  0.64767514     1.04420
O1002       O  0.70141449  0.05495952  0.60247254    -1.12770
O1003       O  0.69965917  0.10442467  0.55914914    -0.75200
O1004       O  0.69701363  0.12250752  0.61005168    -0.78680
O1005       O  0.71212963  0.00192906  0.64158941    -0.79370
C1006       C  0.70787245  0.12450129  0.58115582     0.95890
O1007       O  0.64574968  0.07746380  0.63894245    -0.77330
O1008       O  0.70364942  0.03932628  0.53498845    -0.82520
C1009       C  0.66828761  0.99068324  0.57764928     0.98510
C1010       C  0.73290955  0.03123780  0.53258471     1.04430
O1011       O  0.69905288  0.99121237  0.57634407    -0.78170
C1012       C  0.62608759  0.08202617  0.61608812     1.02730
Fe1013     Fe  0.89804671  0.81577018  0.68268356     1.65780
Fe1014     Fe  0.91629462  0.88864297  0.65522649     1.73250
Fe1015     Fe  0.96287095  0.85556725  0.71150758     1.54420
O1016       O  0.94428617  0.82500191  0.74763069    -0.81900
O1017       O  0.96175355  0.88060764  0.63189572    -0.80210
O1018       O  0.89423635  0.81370604  0.73231421    -0.84410
O1019       O  0.93675416  0.78557496  0.68376067    -0.79260
O1020       O  0.94603338  0.89819228  0.73276754    -0.81040
O1021       O  0.89296896  0.86350150  0.61966034    -0.83780
C1022       C  0.96659525  0.79062312  0.67957828     0.96980
C1023       C  0.91761669  0.81044384  0.75198563     1.04420
O1024       O  0.92535964  0.85312574  0.68380820    -1.12770
O1025       O  0.87338945  0.89479561  0.68264583    -0.75200
O1026       O  0.85681234  0.84408103  0.68122204    -0.78680
O1027       O  0.98056590  0.81626039  0.68822921    -0.79370
C1028       C  0.85387820  0.87264536  0.69188305     0.95890
O1029       O  0.90168426  0.81297706  0.63302021    -0.77330
O1030       O  0.93766832  0.92030927  0.68430808    -0.82520
C1031       C  0.98842269  0.88033057  0.64792066     0.98510
C1032       C  0.94196254  0.92267082  0.71426408     1.04430
O1033       O  0.98807027  0.88313802  0.67846955    -0.78170
C1034       C  0.89700612  0.83446314  0.61175645     1.02730
Fe1035     Fe  0.10253308  0.64450599  0.67266783     1.65780
Fe1036     Fe  0.07289249  0.57276689  0.65076005     1.73250
Fe1037     Fe  0.03229732  0.61724245  0.70409187     1.54410
O1038       O  0.05472889  0.64705914  0.73812945    -0.81900
O1039       O  0.02900513  0.58431926  0.62703243    -0.80210
O1040       O  0.10552982  0.65275350  0.72199673    -0.84410
O1041       O  0.06898197  0.67975744  0.66845182    -0.79260
O1042       O  0.04323056  0.57429575  0.72873245    -0.81040
O1043       O  0.09870866  0.59154437  0.61232104    -0.83780
C1044       C  0.03843642  0.68050475  0.66824050     0.96980
C1045       C  0.08247637  0.65969710  0.74120824     1.04420
O1046       O  0.06958146  0.61183045  0.67629121    -1.12770
O1047       O  0.11497100  0.56210864  0.67788650    -0.75200
O1048       O  0.13893643  0.61014424  0.67708855    -0.78680
O1049       O  0.02068445  0.65782599  0.67864637    -0.79370
C1050       C  0.13706702  0.58130331  0.68763849     0.95890
O1051       O  0.10011558  0.64335979  0.62283902    -0.77330
O1052       O  0.04686609  0.54669502  0.68280111    -0.82520
C1053       C  0.00259770  0.58927120  0.64267994     0.98510
C1054       C  0.04361844  0.54779507  0.71302327     1.04430
O1055       O  0.00247080  0.59206978  0.67326776    -0.78170
C1056       C  0.09918867  0.62045981  0.60286718     1.02730
C1057       C  0.98595561  0.76494243  0.66557360    -0.05690
C1058       C  0.01964270  0.76710033  0.66697514    -0.33120
C1059       C  0.03839693  0.73975373  0.66290115     0.36130
C1060       C  0.02292550  0.71010519  0.65798212    -0.06050
C1061       C  0.99021478  0.70932941  0.64980611    -0.33020
C1062       C  0.97142673  0.73678829  0.65359230     0.36030
H1063       H  0.03140332  0.78906586  0.67434830     0.16400
O1064       O  0.07099546  0.74162298  0.66851278    -0.60520
H1065       H  0.97860242  0.68683379  0.64377919     0.16420
O1066       O  0.93884394  0.73525649  0.64757108    -0.60610
H1067       H  0.92954484  0.72307152  0.66599309     0.43410
H1068       H  0.08080534  0.74542006  0.64696591     0.43370
C1069       C  0.82859075  0.87874864  0.71744636    -0.05690
C1070       C  0.83038579  0.90606495  0.73732210    -0.33120
C1071       C  0.80979627  0.91015521  0.76420566     0.36130
C1072       C  0.78673314  0.88637505  0.77240118    -0.06050
C1073       C  0.78518875  0.85887998  0.75273334    -0.33020
C1074       C  0.80541553  0.85505032  0.72563391     0.36030
H1075       H  0.84833892  0.92416278  0.73253785     0.16400
O1076       O  0.81290229  0.93742690  0.78254965    -0.60520
H1077       H  0.76747152  0.84045816  0.75774217     0.16420
O1078       O  0.80232411  0.82764494  0.70751294    -0.60610
H1079       H  0.78645027  0.83331871  0.69043803     0.43410
H1080       H  0.80144980  0.95464927  0.77030653     0.43370
C1081       C  0.68228240  0.95259384  0.74389848    -0.05690
C1082       C  0.66630124  0.98235341  0.74378974    -0.33120
C1083       C  0.66862692  0.00205442  0.71692957     0.36130
C1084       C  0.68769016  0.99171153  0.69066096    -0.06050
C1085       C  0.69926737  0.95988161  0.68924158    -0.33020
C1086       C  0.69672416  0.94019100  0.71587555     0.36030
H1087       H  0.65441656  0.99131527  0.76539181     0.16400
O1088       O  0.65452457  0.03208432  0.71771908    -0.60520
H1089       H  0.71300017  0.95103340  0.66872846     0.16420
O1090       O  0.71286844  0.91113056  0.71594208    -0.60610
H1091       H  0.69742019  0.89554619  0.70670114     0.43410
H1092       H  0.63305792  0.02937949  0.70751071     0.43370
C1093       C  0.78898098  0.77728167  0.88737384    -0.05690
C1094       C  0.77584912  0.79386823  0.91432577    -0.33120
C1095       C  0.74895332  0.81492134  0.91129084     0.36130
C1096       C  0.73437412  0.81999455  0.88090462    -0.06050
C1097       C  0.74787993  0.80376382  0.85404699    -0.33020
C1098       C  0.77472118  0.78304469  0.85695154     0.36030
H1099       H  0.78582577  0.78983827  0.93820257     0.16400
O1100       O  0.73688502  0.82985827  0.93829130    -0.60520
H1101       H  0.73784758  0.80738123  0.83013297     0.16420
O1102       O  0.78627800  0.76805812  0.82974070    -0.60610
H1103       H  0.80140023  0.78365164  0.81983556     0.43410
H1104       H  0.72176238  0.81418119  0.94807085     0.43370
C1105       C  0.91430182  0.78644269  0.77886898    -0.05690
C1106       C  0.94091045  0.76708100  0.78867672    -0.33120
C1107       C  0.93667273  0.73974072  0.80883572     0.36130
C1108       C  0.90548797  0.73139308  0.81962159    -0.06050
C1109       C  0.87940688  0.75162966  0.81060755    -0.33020
C1110       C  0.88354258  0.77870803  0.79091525     0.36030
H1111       H  0.96483285  0.77216302  0.77940034     0.16400
O1112       O  0.96291486  0.72105937  0.81703717    -0.60520
H1113       H  0.85518073  0.74644085  0.81882173     0.16420
O1114       O  0.85693401  0.79695123  0.78278310    -0.60610
H1115       H  0.85631061  0.81473316  0.79873700     0.43410
H1116       H  0.96545112  0.70545939  0.79908531     0.43370
C1117       C  0.76591079  0.66548595  0.94633212    -0.05690
C1118       C  0.73893802  0.68138170  0.93372091    -0.33120
C1119       C  0.71227399  0.68654858  0.95305235     0.36130
C1120       C  0.71249247  0.67422705  0.98487982    -0.06050
C1121       C  0.73737660  0.65342212  0.99515456    -0.33020
C1122       C  0.76460918  0.64940673  0.97600620     0.36030
H1123       H  0.74016977  0.69384835  0.91065537     0.16400
O1124       O  0.68853636  0.70731352  0.94227659    -0.60520
H1125       H  0.73689557  0.64230616  0.01888969     0.16420
O1126       O  0.79048961  0.63149127  0.98688517    -0.60610
H1127       H  0.79773050  0.64203098  0.00704196     0.43410
H1128       H  0.68039604  0.69800887  0.92182641     0.43370
C1129       C  0.47500492  0.26332157  0.14119869    -0.05690
C1130       C  0.50836289  0.26837617  0.14206521    -0.33120
C1131       C  0.52911469  0.24239158  0.14676253     0.36130
C1132       C  0.51598577  0.21133881  0.14962193    -0.06050
C1133       C  0.48352997  0.20607493  0.14162590    -0.33020
C1134       C  0.46279118  0.23220090  0.13723327     0.36030
H1135       H  0.51778904  0.29258566  0.14417069     0.16400
O1136       O  0.56123441  0.24807091  0.15246125    -0.60520
H1137       H  0.47362567  0.18197649  0.14191377     0.16420
O1138       O  0.43024423  0.22712338  0.13374130    -0.60610
H1139       H  0.42202369  0.22261193  0.15580374     0.43410
H1140       H  0.56268864  0.25295191  0.17587397     0.43370
C1141       C  0.60060034  0.25044582  0.30398331    -0.05690
C1142       C  0.57048647  0.23485705  0.30358706    -0.33120
C1143       C  0.56498631  0.20764892  0.28393257     0.36130
C1144       C  0.58967928  0.19542070  0.26341662    -0.06050
C1145       C  0.61949526  0.21143008  0.26343243    -0.33020
C1146       C  0.62502174  0.23839891  0.28301659     0.36030
H1147       H  0.55112082  0.24345410  0.31901615     0.16400
O1148       O  0.53499332  0.19387218  0.28444818    -0.60520
H1149       H  0.63886333  0.20330607  0.24771722     0.16420
O1150       O  0.65493262  0.25231024  0.28169954    -0.60610
H1151       H  0.65315055  0.26915678  0.26472188     0.43410
H1152       H  0.53589578  0.17777856  0.30220474     0.43370
C1153       C  0.77152238  0.30343853  0.49746996    -0.05690
C1154       C  0.74114816  0.30732543  0.51201105    -0.33120
C1155       C  0.71435691  0.31255583  0.49274586     0.36130
C1156       C  0.71854544  0.31284554  0.45902424    -0.06050
C1157       C  0.74928216  0.31742631  0.44571904    -0.33020
C1158       C  0.77615899  0.31227981  0.46496282     0.36030
H1159       H  0.73758802  0.30279075  0.53757579     0.16400
O1160       O  0.68417233  0.31220516  0.50655172    -0.60520
H1161       H  0.75271772  0.32012901  0.41987968     0.16420
O1162       O  0.80647136  0.31350882  0.45143569    -0.60610
H1163       H  0.80861254  0.29376990  0.43810273     0.43410
H1164       H  0.67660184  0.33494003  0.50605419     0.43370
C1165       C  0.78882281  0.18905020  0.56872006    -0.05690
C1166       C  0.76518798  0.19485132  0.59257258    -0.33120
C1167       C  0.73768166  0.17555649  0.59534870     0.36130
C1168       C  0.73313628  0.14917595  0.57438955    -0.06050
C1169       C  0.75655969  0.14341633  0.55030318    -0.33020
C1170       C  0.78408203  0.16295360  0.54737237     0.36030
H1171       H  0.76745820  0.21513709  0.60879975     0.16400
O1172       O  0.71547553  0.18271193  0.61896908    -0.60520
H1173       H  0.75418662  0.12294388  0.53432101     0.16420
O1174       O  0.80613408  0.15618749  0.52351308    -0.60610
H1175       H  0.82206375  0.14130300  0.53364723     0.43410
H1176       H  0.69916341  0.19677194  0.60828136     0.43370
C1177       C  0.32599179  0.37852694  0.22253739    -0.05690
C1178       C  0.32475115  0.40939632  0.23669883    -0.33120
C1179       C  0.30369937  0.41614273  0.26296634     0.36130
C1180       C  0.28359630  0.39177658  0.27571294    -0.06050
C1181       C  0.28475352  0.36129690  0.26123299    -0.33020
C1182       C  0.30499893  0.35469559  0.23502793     0.36030
H1183       H  0.34036810  0.42818626  0.22769933     0.16400
O1184       O  0.30246416  0.44671906  0.27538226    -0.60520
H1185       H  0.26909049  0.34231103  0.26987518     0.16420
O1186       O  0.30399881  0.32439238  0.22191294    -0.60610
H1187       H  0.28842375  0.32608356  0.20377969     0.43410
H1188       H  0.28598526  0.45830228  0.26226861     0.43370
C1189       C  0.17304862  0.44218257  0.24260184    -0.05690
C1190       C  0.19713209  0.43482228  0.22024879    -0.33120
C1191       C  0.20406728  0.45643178  0.19584994     0.36130
C1192       C  0.18630149  0.48565162  0.19384061    -0.06050
C1193       C  0.15861616  0.49008093  0.21299764    -0.33020
C1194       C  0.15175022  0.46800477  0.23738503     0.36030
H1195       H  0.21332356  0.41447561  0.22421830     0.16400
O1196       O  0.23004431  0.45002953  0.17612441    -0.60520
H1197       H  0.14378440  0.51161449  0.21072470     0.16420
O1198       O  0.12662759  0.47374369  0.25820257    -0.60610
H1199       H  0.10741446  0.46452623  0.24747659     0.43410
H1200       H  0.22164258  0.43582277  0.15891154     0.43370
C1201       C  0.44955066  0.50827155  0.22797240    -0.05690
C1202       C  0.42134465  0.49311167  0.23879980    -0.33120
C1203       C  0.42146745  0.46065078  0.24747879     0.36130
C1204       C  0.44904263  0.44147188  0.24184155    -0.06050
C1205       C  0.47772554  0.45661441  0.23204437    -0.33020
C1206       C  0.47814528  0.48980736  0.22542444     0.36030
H1207       H  0.39939847  0.50693610  0.24245201     0.16400
O1208       O  0.39312291  0.44672664  0.25717578    -0.60520
H1209       H  0.49906349  0.44222714  0.22670737     0.16420
O1210       O  0.50679972  0.50423550  0.21754931    -0.60610
H1211       H  0.50751448  0.50426051  0.19358964     0.43410
H1212       H  0.39397146  0.44664556  0.28112276     0.43370
C1213       C  0.34061685  0.56431558  0.23443023    -0.05690
C1214       C  0.35187132  0.56269865  0.20223804    -0.33120
C1215       C  0.33016487  0.55972478  0.17613141     0.36130
C1216       C  0.29670613  0.55856357  0.18213008    -0.06050
C1217       C  0.28600420  0.55844370  0.21462251    -0.33020
C1218       C  0.30750124  0.56149797  0.24041205     0.36030
H1219       H  0.37739370  0.56563265  0.19722527     0.16400
O1220       O  0.34169994  0.56038007  0.14506501    -0.60520
H1221       H  0.26049801  0.55662609  0.22024968     0.16420
O1222       O  0.29572627  0.56310786  0.27137448    -0.60610
H1223       H  0.29605802  0.54054988  0.27936871     0.43410
H1224       H  0.34756347  0.53771539  0.14008185     0.43370
C1225       C  0.54840995  0.95595723  0.22329655    -0.05690
C1226       C  0.52028651  0.97302715  0.23236382    -0.33120
C1227       C  0.52055846  0.00659337  0.23598021     0.36130
C1228       C  0.54936915  0.02368201  0.23116254    -0.06050
C1229       C  0.57752564  0.00637395  0.22284442    -0.33020
C1230       C  0.57697158  0.97310331  0.21820963     0.36030
H1231       H  0.49837089  0.96003049  0.23801980     0.16400
O1232       O  0.49209490  0.02274026  0.24185381    -0.60520
H1233       H  0.59949909  0.01907557  0.21697261     0.16420
O1234       O  0.60490392  0.95729897  0.20982353    -0.60610
H1235       H  0.61297970  0.94811907  0.23037855     0.43410
H1236       H  0.49107825  0.02513445  0.26567164     0.43370
C1237       C  0.50830171  0.76229385  0.27493855    -0.05690
C1238       C  0.47826865  0.76333852  0.25910589    -0.33120
C1239       C  0.45912525  0.73638819  0.25813388     0.36130
C1240       C  0.47039611  0.70801609  0.27260210    -0.06050
C1241       C  0.49881286  0.70731515  0.29073168    -0.33020
C1242       C  0.51771734  0.73459812  0.29245450     0.36030
H1243       H  0.47047113  0.78417962  0.24531269     0.16400
O1244       O  0.43150810  0.73687337  0.23977151    -0.60520
H1245       H  0.50696297  0.68522893  0.30233704     0.16420
O1246       O  0.54617781  0.73314524  0.30936854    -0.60610
H1247       H  0.54029968  0.73906843  0.33183077     0.43410
H1248       H  0.41431641  0.74513211  0.25435962     0.43370
C1249       C  0.60062583  0.72225311  0.14226831    -0.05690
C1250       C  0.62675071  0.73475328  0.16000314    -0.33120
C1251       C  0.62372535  0.76295055  0.17880936     0.36130
C1252       C  0.59409384  0.78021057  0.18043331    -0.06050
C1253       C  0.56811529  0.76826891  0.16215091    -0.33020
C1254       C  0.57117134  0.73998387  0.14325994     0.36030
H1255       H  0.65009081  0.72275705  0.15921100     0.16400
O1256       O  0.65028732  0.77363245  0.19525204    -0.60520
H1257       H  0.54478235  0.78026747  0.16332178     0.16420
O1258       O  0.54486433  0.72981372  0.12622482    -0.60610
H1259       H  0.54372745  0.74419865  0.10705920     0.43410
H1260       H  0.65222828  0.75934891  0.21442935     0.43370
C1261       C  0.75329746  0.01620810  0.43372301    -0.05690
C1262       C  0.77940547  0.01686265  0.45567476    -0.33120
C1263       C  0.77391046  0.01891452  0.48894253     0.36130
C1264       C  0.74205380  0.01948745  0.50019472    -0.06050
C1265       C  0.71665265  0.01247603  0.47833634    -0.33020
C1266       C  0.72203242  0.01168612  0.44515183     0.36030
H1267       H  0.80390576  0.01947760  0.44678482     0.16400
O1268       O  0.79940529  0.02291377  0.50963812    -0.60520
H1269       H  0.69185255  0.01075909  0.48658163     0.16420
O1270       O  0.69633881  0.01025303  0.42428809    -0.60610
H1271       H  0.68866221  0.03284166  0.42178041     0.43410
H1272       H  0.80377217  0.04637164  0.50948445     0.43370
C1273       C  0.70782010  0.07491397  0.26342647    -0.05690
C1274       C  0.71618248  0.08853734  0.23323660    -0.33120
C1275       C  0.69391221  0.09119658  0.20778378     0.36130
C1276       C  0.66195533  0.08053651  0.21164402    -0.06050
C1277       C  0.65341651  0.06633769  0.24148880    -0.33020
C1278       C  0.67599990  0.06321061  0.26704673     0.36030
H1279       H  0.74043117  0.09720639  0.22898742     0.16400
O1280       O  0.70360880  0.10492469  0.17921823    -0.60520
H1281       H  0.62872054  0.05899622  0.24564059     0.16420
O1282       O  0.66624023  0.04982592  0.29574539    -0.60610
H1283       H  0.66826393  0.02621290  0.29259891     0.43410
H1284       H  0.71135353  0.08667391  0.16576680     0.43370
C1285       C  0.71253793  0.19942207  0.38356226    -0.05690
C1286       C  0.73778030  0.20604596  0.36169940    -0.33120
C1287       C  0.76410036  0.18487316  0.35775774     0.36130
C1288       C  0.76607333  0.15590239  0.37556875    -0.06050
C1289       C  0.74164939  0.14958670  0.39840220    -0.33020
C1290       C  0.71513951  0.17096725  0.40249971     0.36030
H1291       H  0.73728547  0.22794058  0.34737965     0.16400
O1292       O  0.78725921  0.19210287  0.33517956    -0.60520
H1293       H  0.74202527  0.12704370  0.41169454     0.16420
O1294       O  0.69164595  0.16331967  0.42456605    -0.60610
H1295       H  0.67568375  0.15048378  0.41237262     0.43410
H1296       H  0.80465096  0.20288211  0.34743345     0.43370
C1297       C  0.74308183  0.92679019  0.00344140    -0.05690
C1298       C  0.73729161  0.95761819  0.99082109    -0.33120
C1299       C  0.74083243  0.96338508  0.95771708     0.36130
C1300       C  0.75046901  0.93817443  0.93695415    -0.06050
C1301       C  0.75805559  0.90802357  0.94986432    -0.33020
C1302       C  0.75384720  0.90209179  0.98267248     0.36030
H1303       H  0.73151505  0.97750835  0.00680420     0.16400
O1304       O  0.73317636  0.99322835  0.94536708    -0.60520
H1305       H  0.76442472  0.88818481  0.93402877     0.16420
O1306       O  0.76170295  0.87229310  0.99476806    -0.60610
H1307       H  0.78566473  0.87116693  0.99444662     0.43410
H1308       H  0.70925196  0.99378864  0.94386974     0.43370
C1309       C  0.69498302  0.77712441  0.06774859    -0.05690
C1310       C  0.71393367  0.78693599  0.04117652    -0.33120
C1311       C  0.74222386  0.80526676  0.04548127     0.36130
C1312       C  0.75178882  0.81498484  0.07671446    -0.06050
C1313       C  0.73255024  0.80519890  0.10307458    -0.33020
C1314       C  0.70468213  0.78667041  0.09886304     0.36030
H1315       H  0.70790969  0.77872124  0.01710911     0.16400
O1316       O  0.76104198  0.81211496  0.01913933    -0.60520
H1317       H  0.73900276  0.81218822  0.12736201     0.16420
O1318       O  0.68746459  0.77733867  0.12559332    -0.60610
H1319       H  0.66827129  0.79182173  0.12611432     0.43410
H1320       H  0.77628326  0.79363856  0.01721625     0.43370
C1321       C  0.69858243  0.88876714  0.17879517    -0.05690
C1322       C  0.69009435  0.91538711  0.19822935    -0.33120
C1323       C  0.67282797  0.91143594  0.22744060     0.36130
C1324       C  0.66224595  0.88063096  0.23716659    -0.06050
C1325       C  0.67117964  0.85411263  0.21784674    -0.33020
C1326       C  0.68941717  0.85789260  0.18943615     0.36030
H1327       H  0.69870498  0.93915785  0.19183108     0.16400
O1328       O  0.66794685  0.93760812  0.24702633    -0.60520
H1329       H  0.66385903  0.83008115  0.22464520     0.16420
O1330       O  0.69804424  0.83111431  0.17205979    -0.60610
H1331       H  0.71586427  0.82079631  0.18445236     0.43410
H1332       H  0.68700436  0.93804391  0.26151692     0.43370
C1333       C  0.79898645  0.97061495  0.19288956    -0.05690
C1334       C  0.82751597  0.96795452  0.21093788    -0.33120
C1335       C  0.83481842  0.99167247  0.23339240     0.36130
C1336       C  0.81417863  0.01844124  0.23625630    -0.06050
C1337       C  0.78811386  0.02289240  0.21548668    -0.33020
C1338       C  0.77903792  0.99825096  0.19543722     0.36030
H1339       H  0.84327378  0.94709858  0.20855030     0.16400
O1340       O  0.86053308  0.98752958  0.25392660    -0.60520
H1341       H  0.77152591  0.04301749  0.21886238     0.16420
O1342       O  0.74888930  0.99960899  0.18143780    -0.60610
H1343       H  0.74880620  0.01882643  0.16713865     0.43410
H1344       H  0.85214413  0.97464004  0.27226945     0.43370
C1345       C  0.47029520  0.22951197  0.41383537    -0.05690
C1346       C  0.49078706  0.21872080  0.38879768    -0.33120
C1347       C  0.52399032  0.21576362  0.39340005     0.36130
C1348       C  0.53774340  0.22594417  0.42240716    -0.06050
C1349       C  0.51738967  0.23624833  0.44776907    -0.33020
C1350       C  0.48383414  0.23793420  0.44367183     0.36030
H1351       H  0.48061815  0.21060594  0.36611597     0.16400
O1352       O  0.54321203  0.20559142  0.36836145    -0.60520
H1353       H  0.52781176  0.24531008  0.46994746     0.16420
O1354       O  0.46448658  0.24636533  0.46928636    -0.60610
H1355       H  0.46135432  0.27000551  0.46728634     0.43410
H1356       H  0.54592979  0.18205103  0.37168149     0.43370
C1357       C  0.28870931  0.27191567  0.38699265    -0.05690
C1358       C  0.25657657  0.26099443  0.38337841    -0.33120
C1359       C  0.23000443  0.28236952  0.38256854     0.36130
C1360       C  0.23456930  0.31561900  0.38613528    -0.06050
C1361       C  0.26635388  0.32665508  0.39129643    -0.33020
C1362       C  0.29317699  0.30521678  0.39190906     0.36030
H1363       H  0.25183893  0.23553825  0.38050378     0.16400
O1364       O  0.19965129  0.27055966  0.37712142    -0.60520
H1365       H  0.27065302  0.35232160  0.39289813     0.16420
O1366       O  0.32359462  0.31731263  0.39612250    -0.60610
H1367       H  0.33160831  0.32200133  0.37401119     0.43410
H1368       H  0.19776789  0.26890536  0.35329117     0.43370
C1369       C  0.40366849  0.21306985  0.30710191    -0.05690
C1370       C  0.41065347  0.20592794  0.27480683    -0.33120
C1371       C  0.41651568  0.23086842  0.25246388     0.36130
C1372       C  0.41485290  0.26361973  0.26214120    -0.06050
C1373       C  0.40978602  0.27050098  0.29484990    -0.33020
C1374       C  0.40407939  0.24560769  0.31714968     0.36030
H1375       H  0.41012702  0.18118540  0.26657804     0.16400
O1376       O  0.42298993  0.22294646  0.22095405    -0.60520
H1377       H  0.40855808  0.29530018  0.30290967     0.16420
O1378       O  0.39658169  0.25344421  0.34847002    -0.60610
H1379       H  0.41712837  0.26088923  0.35808377     0.43410
H1380       H  0.44689339  0.22314836  0.21910963     0.43370
C1381       C  0.02633545  0.24031884  0.52440204    -0.05690
C1382       C  0.00878297  0.22520359  0.49965333    -0.33120
C1383       C  0.97575847  0.21929458  0.50317970     0.36130
C1384       C  0.95988256  0.22850036  0.53171369    -0.06050
C1385       C  0.97778440  0.24337136  0.55638361    -0.33020
C1386       C  0.01018077  0.25078121  0.55208995     0.36030
H1387       H  0.02129878  0.21585330  0.47857971     0.16400
O1388       O  0.95876262  0.20675750  0.47779052    -0.60520
H1389       H  0.96572701  0.25296692  0.57750067     0.16420
O1390       O  0.02653654  0.26641605  0.57608794    -0.60610
H1391       H  0.02540262  0.28956343  0.57013971     0.43410
H1392       H  0.95810992  0.18323169  0.48197381     0.43370
C1393       C  0.21994309  0.17957432  0.49235761    -0.05690
C1394       C  0.23320455  0.14945915  0.48434777    -0.33120
C1395       C  0.26037768  0.14807257  0.46444228     0.36130
C1396       C  0.27367638  0.17701987  0.45328348    -0.06050
C1397       C  0.26012596  0.20677995  0.46143839    -0.33020
C1398       C  0.23368194  0.20829822  0.48109855     0.36030
H1399       H  0.22243348  0.12743006  0.49322947     0.16400
O1400       O  0.27390729  0.11886118  0.45649921    -0.60520
H1401       H  0.27029885  0.22921765  0.45273363     0.16420
O1402       O  0.22221685  0.23805912  0.49040840    -0.60610
H1403       H  0.21026724  0.24668980  0.47144357     0.43410
H1404       H  0.29096576  0.11498017  0.47290708     0.43370
C1405       C  0.04310889  0.44793431  0.72024491    -0.05690
C1406       C  0.07163637  0.46533880  0.72406736    -0.33120
C1407       C  0.07100126  0.49858509  0.72874258     0.36130
C1408       C  0.04171872  0.51578593  0.72735294    -0.06050
C1409       C  0.01294885  0.49859870  0.72273828    -0.33020
C1410       C  0.01345647  0.46487266  0.71988046     0.36030
H1411       H  0.09443346  0.45265074  0.72653128     0.16400
O1412       O  0.09950304  0.51456069  0.73284117    -0.60520
H1413       H  0.99024152  0.51151570  0.71991157     0.16420
O1414       O  0.98483771  0.44850804  0.71881073    -0.60610
H1415       H  0.98021115  0.44571228  0.69548574     0.43410
H1416       H  0.11119649  0.51150501  0.71220090     0.43370
C1417       C  0.08662749  0.27452106  0.68857940    -0.05690
C1418       C  0.06148507  0.26383159  0.66821609    -0.33120
C1419       C  0.06557038  0.23671553  0.64783782     0.36130
C1420       C  0.09533799  0.21980355  0.64700003    -0.06050
C1421       C  0.11951286  0.22939693  0.66877414    -0.33020
C1422       C  0.11563397  0.25620522  0.68890907     0.36030
H1423       H  0.03843780  0.27641105  0.66812407     0.16400
O1424       O  0.04066660  0.22772451  0.62815153    -0.60520
H1425       H  0.14254025  0.21676742  0.66941401     0.16420
O1426       O  0.14066091  0.26397801  0.70903325    -0.60610
H1427       H  0.15633325  0.27554423  0.69514897     0.43410
H1428       H  0.02731966  0.21302917  0.64146276     0.43370
C1429       C  0.95390965  0.02197518  0.71034178    -0.05690
C1430       C  0.92348371  0.00840105  0.70633236    -0.33120
C1431       C  0.91828562  0.97623256  0.71424392     0.36130
C1432       C  0.94426317  0.95613099  0.72392417    -0.06050
C1433       C  0.97534487  0.96913519  0.72537194    -0.33020
C1434       C  0.98029599  0.00173999  0.71837557     0.36030
H1435       H  0.90283330  0.02371548  0.70089371     0.16400
O1436       O  0.88780160  0.96397134  0.71096655    -0.60520
H1437       H  0.99600709  0.95364609  0.73028607     0.16420
O1438       O  0.01037799  0.01450794  0.72290547    -0.60610
H1439       H  0.02033941  0.01502861  0.70110139     0.43410
H1440       H  0.88394604  0.96260541  0.68735023     0.43370
C1441       C  0.83601040  0.08025438  0.72726050    -0.05690
C1442       C  0.83413376  0.05017347  0.71161268    -0.33120
C1443       C  0.81396266  0.04564051  0.68430000     0.36130
C1444       C  0.79490557  0.07140618  0.67180101    -0.06050
C1445       C  0.79756020  0.10149113  0.68695818    -0.33020
C1446       C  0.81734786  0.10605292  0.71404462     0.36030
H1447       H  0.84806679  0.02991334  0.72073846     0.16400
O1448       O  0.81187590  0.01544882  0.67117337    -0.60520
H1449       H  0.78341357  0.12183267  0.67826118     0.16420
O1450       O  0.81848491  0.13643605  0.72693576    -0.60610
H1451       H  0.79994295  0.13767949  0.74211945     0.43410
H1452       H  0.83017096  0.01392408  0.65572459     0.43370
C1453       C  0.90902059  0.19170230  0.68382863    -0.05690
C1454       C  0.88783106  0.21716183  0.69166109    -0.33120
C1455       C  0.88449250  0.24415438  0.67158004     0.36130
C1456       C  0.90186005  0.24615842  0.64221671    -0.06050
C1457       C  0.92365240  0.22103947  0.63461880    -0.33020
C1458       C  0.92753671  0.19419602  0.65521502     0.36030
H1459       H  0.87408347  0.21656272  0.71396569     0.16400
O1460       O  0.86328514  0.26811032  0.68056409    -0.60520
H1461       H  0.93643329  0.22119444  0.61183978     0.16420
O1462       O  0.94901027  0.17030785  0.64673384    -0.60610
H1463       H  0.93624663  0.15480135  0.63391769     0.43410
H1464       H  0.87664925  0.28420314  0.69195099     0.43370
C1465       C  0.97718971  0.20550574  0.79875597    -0.05690
C1466       C  0.01059905  0.20197325  0.80313260    -0.33120
C1467       C  0.02999158  0.22899288  0.80308491     0.36130
C1468       C  0.01535341  0.25951796  0.79922374    -0.06050
C1469       C  0.98180563  0.26292310  0.80271735    -0.33020
C1470       C  0.96244637  0.23593952  0.80239158     0.36030
H1471       H  0.02202735  0.17836124  0.80269395     0.16400
O1472       O  0.06296327  0.22499626  0.80334496    -0.60520
H1473       H  0.97031169  0.28641129  0.80206013     0.16420
O1474       O  0.92954939  0.24004566  0.80083158    -0.60610
H1475       H  0.92201974  0.23886638  0.82356648     0.43410
H1476       H  0.06893378  0.21896107  0.78091234     0.43370
C1477       C  0.23612680  0.45776168  0.51070357    -0.05690
C1478       C  0.20848660  0.44342160  0.49846382    -0.33120
C1479       C  0.20428250  0.44095433  0.46497811     0.36130
C1480       C  0.22821228  0.45265175  0.44328629    -0.06050
C1481       C  0.25303216  0.47157619  0.45552654    -0.33020
C1482       C  0.25698584  0.47434166  0.48913898     0.36030
H1483       H  0.19215753  0.43084091  0.51454515     0.16400
O1484       O  0.17763619  0.42513108  0.45360024    -0.60520
H1485       H  0.27106357  0.48150166  0.43940150     0.16420
O1486       O  0.28341982  0.49029979  0.50086770    -0.60610
H1487       H  0.30223713  0.47594220  0.49659292     0.43410
H1488       H  0.18164366  0.40196674  0.45823539     0.43370
C1489       C  0.20508995  0.27668181  0.56047579    -0.05690
C1490       C  0.20018970  0.30885671  0.55049161    -0.33120
C1491       C  0.22555629  0.33146640  0.55163036     0.36130
C1492       C  0.25674475  0.32212478  0.56225254    -0.06050
C1493       C  0.26197749  0.28983166  0.57071158    -0.33020
C1494       C  0.23698272  0.26725419  0.56945445     0.36030
H1495       H  0.17643626  0.31680239  0.54270651     0.16400
O1496       O  0.21912572  0.36309362  0.54408388    -0.60520
H1497       H  0.28541514  0.28228229  0.57979943     0.16420
O1498       O  0.24418855  0.23597356  0.57772386    -0.60610
H1499       H  0.25088770  0.22548447  0.55723668     0.43410
H1500       H  0.21193598  0.37314090  0.56462775     0.43370
C1501       C  0.16302489  0.38576664  0.73761191    -0.05690
C1502       C  0.16293644  0.41488276  0.71986240    -0.33120
C1503       C  0.18423124  0.41989410  0.69348205     0.36130
C1504       C  0.20654179  0.39564683  0.68392265    -0.06050
C1505       C  0.20715755  0.36696202  0.70207782    -0.33020
C1506       C  0.18591683  0.36182012  0.72819235     0.36030
H1507       H  0.14627276  0.43396777  0.72635100     0.16400
O1508       O  0.18348800  0.44901817  0.67779215    -0.60520
H1509       H  0.22435348  0.34808329  0.69599669     0.16420
O1510       O  0.18815650  0.33304929  0.74445546    -0.60610
H1511       H  0.17520950  0.31775577  0.73159887     0.43410
H1512       H  0.20148533  0.46143272  0.68729978     0.43370
C1513       C  0.23641280  0.50611437  0.94120860    -0.05690
C1514       C  0.25670500  0.48693214  0.96096204    -0.33120
C1515       C  0.25826122  0.49208459  0.99440779     0.36130
C1516       C  0.23870984  0.51610167  0.00833229    -0.06050
C1517       C  0.21490047  0.53141678  0.98907185    -0.33020
C1518       C  0.21363656  0.52648011  0.95575652     0.36030
H1519       H  0.27462163  0.47123101  0.94990246     0.16400
O1520       O  0.28083332  0.47572097  0.01249579    -0.60520
H1521       H  0.19844640  0.54899048  0.99952245     0.16420
O1522       O  0.19355915  0.54539390  0.93722030    -0.60610
H1523       H  0.17459705  0.53172012  0.93261765     0.43410
H1524       H  0.30080607  0.48867075  0.01086667     0.43370
C1525       C  0.32052617  0.49231089  0.75359242    -0.05690
C1526       C  0.33042698  0.50757659  0.72499907    -0.33120
C1527       C  0.33177123  0.48998451  0.69654120     0.36130
C1528       C  0.32499880  0.45701778  0.69765686    -0.06050
C1529       C  0.32173311  0.44085969  0.72693653    -0.33020
C1530       C  0.31850436  0.45838092  0.75514906     0.36030
H1531       H  0.33281064  0.53353553  0.72376492     0.16400
O1532       O  0.33663867  0.50541711  0.66755583    -0.60520
H1533       H  0.31646129  0.41529266  0.72740773     0.16420
O1534       O  0.30799177  0.44297541  0.78268598    -0.60610
H1535       H  0.32063583  0.42262929  0.78457078     0.43410
H1536       H  0.31554111  0.51549501  0.66194900     0.43370
C1537       C  0.19903116  0.55714965  0.76948726    -0.05690
C1538       C  0.19170750  0.53333240  0.74643282    -0.33120
C1539       C  0.17249091  0.54062073  0.71903440     0.36130
C1540       C  0.15956295  0.57191179  0.71463688    -0.06050
C1541       C  0.16697723  0.59543480  0.73792552    -0.33020
C1542       C  0.18639104  0.58837809  0.76482887     0.36030
H1543       H  0.20250023  0.50954219  0.74863403     0.16400
O1544       O  0.16806079  0.51751892  0.69593190    -0.60520
H1545       H  0.15774014  0.61973492  0.73522454     0.16420
O1546       O  0.19398652  0.61265645  0.78585810    -0.60610
H1547       H  0.18044576  0.60883918  0.80527724     0.43410
H1548       H  0.18469954  0.52185556  0.67923357     0.43370
C1549       C  0.52210867  0.72572742  0.03547710    -0.05690
C1550       C  0.51077018  0.74001103  0.00704639    -0.33120
C1551       C  0.47790780  0.73928756  0.99982552     0.36130
C1552       C  0.45600281  0.72519445  0.02182285    -0.06050
C1553       C  0.46750619  0.70898761  0.04894361    -0.33020
C1554       C  0.50029924  0.70920840  0.05594105     0.36030
H1555       H  0.52749487  0.75048012  0.98986113     0.16400
O1556       O  0.46681374  0.75533479  0.97293448    -0.60520
H1557       H  0.45082305  0.69857036  0.06621338     0.16420
O1558       O  0.51113994  0.69261126  0.08261360    -0.60610
H1559       H  0.51008829  0.66948573  0.07674362     0.43410
H1560       H  0.46332702  0.73834460  0.95654118     0.43370
C1561       C  0.29001376  0.69303172  0.07466509    -0.05690
C1562       C  0.28063072  0.67181462  0.04986497    -0.33120
C1563       C  0.25435481  0.65090029  0.05384824     0.36130
C1564       C  0.23676447  0.65075612  0.08307230    -0.06050
C1565       C  0.24525933  0.67290310  0.10720433    -0.33020
C1566       C  0.27147519  0.69362908  0.10337119     0.36030
H1567       H  0.29381034  0.67121921  0.02722896     0.16400
O1568       O  0.24763088  0.62921321  0.02989577    -0.60520
H1569       H  0.23221251  0.67331394  0.12993812     0.16420
O1570       O  0.27829288  0.71469999  0.12785003    -0.60610
H1571       H  0.29287697  0.70262108  0.14263318     0.43410
H1572       H  0.23244003  0.64065242  0.01521153     0.43370
C1573       C  0.39716894  0.73857266  0.13976984    -0.05690
C1574       C  0.37082459  0.72598235  0.15730262    -0.33120
C1575       C  0.37313769  0.69686478  0.17476337     0.36130
C1576       C  0.40248032  0.67908666  0.17573881    -0.06050
C1577       C  0.42880654  0.69141751  0.15785099    -0.33020
C1578       C  0.42637861  0.72059992  0.14016382     0.36030
H1579       H  0.34778307  0.73857374  0.15722531     0.16400
O1580       O  0.34650120  0.68659883  0.19150937    -0.60520
H1581       H  0.45191693  0.67896380  0.15836515     0.16420
O1582       O  0.45290171  0.73130443  0.12354514    -0.60610
H1583       H  0.46541284  0.74395353  0.13942276     0.43410
H1584       H  0.33575728  0.67107539  0.17696008     0.43370
C1585       C  0.95486391  0.74427026  0.93320279    -0.05690
C1586       C  0.97685899  0.73528742  0.95760069    -0.33120
C1587       C  0.00929352  0.72904317  0.95022787     0.36130
C1588       C  0.02012860  0.73197172  0.91816969    -0.06050
C1589       C  0.99815658  0.74197001  0.89413455    -0.33020
C1590       C  0.96637102  0.74994610  0.90193956     0.36030
H1591       H  0.96815391  0.73014309  0.98178614     0.16400
O1592       O  0.03056657  0.72208038  0.97472663    -0.60520
H1593       H  0.00655682  0.74643351  0.86968519     0.16420
O1594       O  0.94561869  0.75979507  0.87802701    -0.60610
H1595       H  0.94767344  0.78356393  0.87714738     0.43410
H1596       H  0.03147736  0.69821987  0.97584865     0.43370
C1597       C  0.19785416  0.68630382  0.88291589    -0.05690
C1598       C  0.22677033  0.69367535  0.86642162    -0.33120
C1599       C  0.25235352  0.67159768  0.86442609     0.36130
C1600       C  0.24984059  0.64106605  0.87884968    -0.06050
C1601       C  0.22152824  0.63358657  0.89612693    -0.33020
C1602       C  0.19563110  0.65587433  0.89819133     0.36030
H1603       H  0.22981653  0.71685504  0.85475785     0.16400
O1604       O  0.27946429  0.67971878  0.84720212    -0.60520
H1605       H  0.21880701  0.60981529  0.90664860     0.16420
O1606       O  0.16847304  0.64760354  0.91520450    -0.60610
H1607       H  0.15440819  0.63664954  0.89934885     0.43410
H1608       H  0.29470929  0.68833259  0.86343384     0.43370
C1609       C  0.09915861  0.74192657  0.80445765    -0.05690
C1610       C  0.12392038  0.71933354  0.79713147    -0.33120
C1611       C  0.11829501  0.69174323  0.77857887     0.36130
C1612       C  0.08743182  0.68565801  0.76597362    -0.06050
C1613       C  0.06222421  0.70763242  0.77370059    -0.33020
C1614       C  0.06781780  0.73536693  0.79279480     0.36030
H1615       H  0.14809861  0.72243621  0.80655357     0.16400
O1616       O  0.14338725  0.67066992  0.77315133    -0.60520
H1617       H  0.03823201  0.70388151  0.76404813     0.16420
O1618       O  0.04251736  0.75577598  0.79969821    -0.60610
H1619       H  0.04172560  0.77126065  0.78140180     0.43410
H1620       H  0.14125231  0.65398133  0.79021092     0.43370
C1621       C  0.21344667  0.78231598  0.96168451    -0.05690
C1622       C  0.22428195  0.81268719  0.97139068    -0.33120
C1623       C  0.24959305  0.81465016  0.99340177     0.36130
C1624       C  0.26337266  0.78606440  0.00526443    -0.06050
C1625       C  0.25201854  0.75599103  0.99615358    -0.33020
C1626       C  0.22737473  0.75387719  0.97412521     0.36030
H1627       H  0.21339315  0.83452449  0.96174374     0.16400
O1628       O  0.26175576  0.84408900  0.00178871    -0.60520
H1629       H  0.26366168  0.73401816  0.00469487     0.16420
O1630       O  0.21873993  0.72402885  0.96292565    -0.60610
H1631       H  0.20535491  0.71442954  0.98031323     0.43410
H1632       H  0.25125245  0.84950156  0.02266493     0.43370
C1633       C  0.89920790  0.81048579  0.51038955    -0.05690
C1634       C  0.90044405  0.78623069  0.53421378    -0.33120
C1635       C  0.89904204  0.79356619  0.56697489     0.36130
C1636       C  0.89704225  0.82592040  0.57693165    -0.06050
C1637       C  0.89691084  0.85042126  0.55308731    -0.33020
C1638       C  0.89805608  0.84287341  0.52000726     0.36030
H1639       H  0.90160644  0.76105266  0.52735157     0.16400
O1640       O  0.89947508  0.76871595  0.58892470    -0.60520
H1641       H  0.89576682  0.87554814  0.56003144     0.16420
O1642       O  0.89616695  0.86712083  0.49748438    -0.60610
H1643       H  0.91887387  0.87330828  0.49322310     0.43410
H1644       H  0.87648798  0.76286732  0.59205392     0.43370
C1645       C  0.86156662  0.88917261  0.36952516    -0.05690
C1646       C  0.84418193  0.89902892  0.34226120    -0.33120
C1647       C  0.83308719  0.93076708  0.33874584     0.36130
C1648       C  0.83898595  0.95428874  0.36305141    -0.06050
C1649       C  0.85791611  0.94485649  0.38971586    -0.33020
C1650       C  0.86932985  0.91276864  0.39297052     0.36030
H1651       H  0.83835918  0.88176260  0.32360352     0.16400
O1652       O  0.81610725  0.93821347  0.31119697    -0.60520
H1653       H  0.86301724  0.96204383  0.40863732     0.16420
O1654       O  0.88638636  0.90441461  0.42016501    -0.60610
H1655       H  0.90927998  0.90888955  0.41479188     0.43410
H1656       H  0.79399037  0.92993356  0.31494999     0.43370
C1657       C  0.59098050  0.82758887  0.45048634    -0.05690
C1658       C  0.56851900  0.81228454  0.43046169    -0.33120
C1659       C  0.56890081  0.81722839  0.39681571     0.36130
C1660       C  0.59158911  0.83825549  0.38270670    -0.06050
C1661       C  0.61246852  0.85530737  0.40304391    -0.33020
C1662       C  0.61264708  0.84969781  0.43651615     0.36030
H1663       H  0.55238160  0.79444803  0.44058369     0.16400
O1664       O  0.54707600  0.80128696  0.37790895    -0.60520
H1665       H  0.62992420  0.87174752  0.39276540     0.16420
O1666       O  0.63601097  0.86381085  0.45505319    -0.60610
H1667       H  0.62539710  0.88304067  0.46466460     0.43410
H1668       H  0.55654336  0.77949708  0.37468078     0.43370
C1669       C  0.77757441  0.80811228  0.45548015    -0.05690
C1670       C  0.78241102  0.80898767  0.48900030    -0.33120
C1671       C  0.75612555  0.81236654  0.50976388     0.36130
C1672       C  0.72492251  0.81406405  0.49667223    -0.06050
C1673       C  0.72058646  0.81756506  0.46324604    -0.33020
C1674       C  0.74695012  0.81491489  0.44247178     0.36030
H1675       H  0.80618043  0.80428741  0.49906144     0.16400
O1676       O  0.76067793  0.80878817  0.54241333    -0.60520
H1677       H  0.69643678  0.81880269  0.45314611     0.16420
O1678       O  0.74182708  0.81420214  0.40973676    -0.60610
H1679       H  0.74358600  0.83693502  0.40254783     0.43410
H1680       H  0.76212515  0.83105038  0.55088235     0.43370
C1681       C  0.63562615  0.89146888  0.58391918    -0.05690
C1682       C  0.61439216  0.91555108  0.57171513    -0.33120
C1683       C  0.62336724  0.94844709  0.57074316     0.36130
C1684       C  0.65410248  0.95775376  0.58178102    -0.06050
C1685       C  0.67420446  0.93385617  0.59564041    -0.33020
C1686       C  0.66549830  0.90146872  0.59669730     0.36030
H1687       H  0.59117145  0.90878838  0.56192884     0.16400
O1688       O  0.60240271  0.97087792  0.55805407    -0.60520
H1689       H  0.69774951  0.94007373  0.60507786     0.16420
O1690       O  0.68764411  0.87960428  0.60844915    -0.60610
H1691       H  0.68440247  0.87952807  0.63220416     0.43410
H1692       H  0.60723392  0.97139850  0.53457720     0.43370
C1693       C  0.52107067  0.88816816  0.81416686    -0.05690
C1694       C  0.53027650  0.87803684  0.84527911    -0.33120
C1695       C  0.56323550  0.87636928  0.85396607     0.36130
C1696       C  0.58740827  0.88426845  0.83110673    -0.06050
C1697       C  0.57777644  0.89610382  0.80078818    -0.33020
C1698       C  0.54523600  0.89814109  0.79231166     0.36030
H1699       H  0.51212887  0.86976317  0.86220364     0.16400
O1700       O  0.57150199  0.86531692  0.88412257    -0.60520
H1701       H  0.59561634  0.90364890  0.78317679     0.16420
O1702       O  0.53716851  0.90949882  0.76213495    -0.60610
H1703       H  0.54293444  0.89189981  0.74694528     0.43410
H1704       H  0.57046388  0.88455213  0.89826203     0.43370
C1705       C  0.38228156  0.84306144  0.88657189    -0.05690
C1706       C  0.40233804  0.85945114  0.90865902    -0.33120
C1707       C  0.40245777  0.85154113  0.94177065     0.36130
C1708       C  0.38189239  0.82738360  0.95335897    -0.06050
C1709       C  0.36006428  0.81302883  0.93172498    -0.33020
C1710       C  0.36037492  0.82033386  0.89871611     0.36030
H1711       H  0.41948339  0.87707119  0.89998968     0.16400
O1712       O  0.42414938  0.86599077  0.96198773    -0.60520
H1713       H  0.34364112  0.79463308  0.94022428     0.16420
O1714       O  0.33948194  0.80469423  0.87852135    -0.60610
H1715       H  0.34948135  0.78322399  0.87469128     0.43410
H1716       H  0.44400682  0.85247752  0.96074583     0.43370
C1717       C  0.46303905  0.59022654  0.81618278    -0.05690
C1718       C  0.43858806  0.60651581  0.79865066    -0.33120
C1719       C  0.40636275  0.60636088  0.80834641     0.36130
C1720       C  0.39702352  0.58908967  0.83608095    -0.06050
C1721       C  0.42137104  0.57363547  0.85459138    -0.33020
C1722       C  0.45411833  0.57410875  0.84484687     0.36030
H1723       H  0.44406671  0.61920525  0.77644740     0.16400
O1724       O  0.38411572  0.62308804  0.79011140    -0.60520
H1725       H  0.41488796  0.55993327  0.87592569     0.16420
O1726       O  0.47682334  0.55810828  0.86305594    -0.60610
H1727       H  0.47717893  0.53577197  0.85460163     0.43410
H1728       H  0.38018762  0.60947370  0.77086612     0.43370
C1729       C  0.58500951  0.68860189  0.68563086    -0.05690
C1730       C  0.60688898  0.68298833  0.66045825    -0.33120
C1731       C  0.61464143  0.70758110  0.63838800     0.36130
C1732       C  0.60057152  0.73884795  0.64105960    -0.06050
C1733       C  0.57737262  0.74397564  0.66536665    -0.33020
C1734       C  0.56985844  0.71927646  0.68769644     0.36030
H1735       H  0.61881751  0.65972298  0.65845949     0.16400
O1736       O  0.63646560  0.70077058  0.61431209    -0.60520
H1737       H  0.56596074  0.76743270  0.66782676     0.16420
O1738       O  0.54843358  0.72570812  0.71221844    -0.60610
H1739       H  0.52717604  0.71846677  0.70409072     0.43410
H1740       H  0.62322713  0.69404919  0.59558609     0.43370
C1741       C  0.51942758  0.70765304  0.80064414    -0.05690
C1742       C  0.53359481  0.73808745  0.80103178    -0.33120
C1743       C  0.51391444  0.76540577  0.80164702     0.36130
C1744       C  0.48017575  0.76172455  0.80283141    -0.06050
C1745       C  0.46669963  0.73140466  0.80811852    -0.33020
C1746       C  0.48623255  0.70416190  0.80630507     0.36030
H1747       H  0.55937687  0.74071016  0.79730002     0.16400
O1748       O  0.52746298  0.79537732  0.79882424    -0.60520
H1749       H  0.44072382  0.72847453  0.80951211     0.16420
O1750       O  0.47246980  0.67426226  0.80732654    -0.60610
H1751       H  0.46194731  0.67174537  0.78597847     0.43410
H1752       H  0.53426466  0.79730542  0.77589784     0.43370
C1753       C  0.60565111  0.62145524  0.88662168    -0.05690
C1754       C  0.59257141  0.60069292  0.91046940    -0.33120
C1755       C  0.59195830  0.60925816  0.94357413     0.36130
C1756       C  0.60393710  0.63930432  0.95344703    -0.06050
C1757       C  0.61832474  0.65910754  0.92983732    -0.33020
C1758       C  0.61945489  0.65055219  0.89713309     0.36030
H1759       H  0.58166984  0.57818125  0.90335284     0.16400
O1760       O  0.57754154  0.58913940  0.96549180    -0.60520
H1761       H  0.62790336  0.68228046  0.93662715     0.16420
O1762       O  0.63316841  0.67160614  0.87557954    -0.60610
H1763       H  0.61604690  0.68779309  0.87073663     0.43410
H1764       H  0.59514302  0.57475747  0.97332631     0.43370
C1765       C  0.85761720  0.58004178  0.86714285    -0.05690
C1766       C  0.83269452  0.57097777  0.84645720    -0.33120
C1767       C  0.82181710  0.53926331  0.84547583     0.36130
C1768       C  0.83542102  0.51534953  0.86621607    -0.06050
C1769       C  0.86183062  0.52394775  0.88563634    -0.33020
C1770       C  0.87301078  0.55600417  0.88613233     0.36030
H1771       H  0.82069218  0.58891288  0.83148687     0.16400
O1772       O  0.79647867  0.53241193  0.82525721    -0.60520
H1773       H  0.87286534  0.50623239  0.90153009     0.16420
O1774       O  0.89714546  0.56402489  0.90721249    -0.60610
H1775       H  0.91752737  0.56026919  0.89510619     0.43410
H1776       H  0.80432997  0.53672126  0.80302197     0.43370
C1777       C  0.90405553  0.37363126  0.84291304    -0.05690
C1778       C  0.92689443  0.39309869  0.85896183    -0.33120
C1779       C  0.95964894  0.39377894  0.84913908     0.36130
C1780       C  0.97009881  0.37484313  0.82289290    -0.06050
C1781       C  0.94767121  0.35406769  0.80838662    -0.33020
C1782       C  0.91537651  0.35298331  0.81832072     0.36030
H1783       H  0.91903077  0.40928048  0.87795707     0.16400
O1784       O  0.98053585  0.41447266  0.86396532    -0.60520
H1785       H  0.95494501  0.33923978  0.78810514     0.16420
O1786       O  0.89477551  0.33268129  0.80253400    -0.60610
H1787       H  0.89587625  0.31212005  0.81478579     0.43410
H1788       H  0.97862921  0.43497600  0.85170067     0.43370
C1789       C  0.82410764  0.45140295  0.57583794    -0.05690
C1790       C  0.85697232  0.44368060  0.57182309    -0.33120
C1791       C  0.86761121  0.41139847  0.57317651     0.36130
C1792       C  0.84516748  0.38643971  0.57880317    -0.06050
C1793       C  0.81246674  0.39443150  0.58234456    -0.33020
C1794       C  0.80181596  0.42606937  0.58058684     0.36030
H1795       H  0.87446548  0.46262237  0.56821519     0.16400
O1796       O  0.89972389  0.40460152  0.56823167    -0.60520
H1797       H  0.79446477  0.37596135  0.58600323     0.16420
O1798       O  0.76911592  0.43170586  0.58281496    -0.60610
H1799       H  0.76381893  0.42950673  0.60612314     0.43410
H1800       H  0.90985368  0.40621507  0.58986432     0.43370
C1801       C  0.70694371  0.69543996  0.55870644    -0.05690
C1802       C  0.72892273  0.69969250  0.58429602    -0.33120
C1803       C  0.75403900  0.67783324  0.59030909     0.36130
C1804       C  0.75818803  0.65041367  0.57073722    -0.06050
C1805       C  0.73676009  0.64610124  0.54459775    -0.33020
C1806       C  0.71125412  0.66830624  0.53855827     0.36030
H1807       H  0.72675665  0.72030454  0.60018525     0.16400
O1808       O  0.77468147  0.68365953  0.61553894    -0.60520
H1809       H  0.73895192  0.62482227  0.52961681     0.16420
O1810       O  0.69128951  0.66355687  0.51263246    -0.60610
H1811       H  0.67430969  0.64880253  0.52061403     0.43410
H1812       H  0.76225691  0.67848264  0.63539168     0.43370
C1813       C  0.70519344  0.56812209  0.68815265    -0.05690
C1814       C  0.67217041  0.56290382  0.68229858    -0.33120
C1815       C  0.64932884  0.56457985  0.70755179     0.36130
C1816       C  0.65912483  0.57126270  0.73951925    -0.06050
C1817       C  0.69212454  0.57501247  0.74568495    -0.33020
C1818       C  0.71503511  0.57313759  0.72060795     0.36030
H1819       H  0.66383825  0.55857281  0.65790155     0.16400
O1820       O  0.61711370  0.56239566  0.70023056    -0.60520
H1821       H  0.70008750  0.58089639  0.76987991     0.16420
O1822       O  0.74711398  0.57598460  0.72831239    -0.60610
H1823       H  0.75090331  0.59947854  0.73002654     0.43410
H1824       H  0.61097575  0.54024522  0.70666999     0.43370
C1825       C  0.81518545  0.49717849  0.69622566    -0.05690
C1826       C  0.80853288  0.46426881  0.69263926    -0.33120
C1827       C  0.80945697  0.44389706  0.71928143     0.36130
C1828       C  0.81720425  0.45665802  0.74956347    -0.06050
C1829       C  0.82839002  0.48820617  0.75232117    -0.33020
C1830       C  0.82740936  0.50873250  0.72566400     0.36030
H1831       H  0.79982670  0.45496651  0.66981969     0.16400
O1832       O  0.79830967  0.41299914  0.71640028    -0.60520
H1833       H  0.83522898  0.49757502  0.77570281     0.16420
O1834       O  0.83526610  0.54054118  0.72948890    -0.60610
H1835       H  0.81533823  0.55115081  0.73774968     0.43410
H1836       H  0.81777521  0.39967111  0.71180196     0.43370
C1837       C  0.90311909  0.59001482  0.61113560    -0.05690
C1838       C  0.92572683  0.56907174  0.59609350    -0.33120
C1839       C  0.95894685  0.56985122  0.60392676     0.36130
C1840       C  0.97015765  0.59183487  0.62706936    -0.06050
C1841       C  0.94793933  0.61418263  0.64019052    -0.33020
C1842       C  0.91495023  0.61335787  0.63263162     0.36030
H1843       H  0.91741862  0.55078562  0.57951684     0.16400
O1844       O  0.97951958  0.54722848  0.59102316    -0.60520
H1845       H  0.95598801  0.63159752  0.65783279     0.16420
O1846       O  0.89444091  0.63529528  0.64684563    -0.60610
H1847       H  0.89058915  0.62693200  0.66899547     0.43410
H1848       H  0.98824241  0.55733354  0.57112932     0.43370
C1849       C  0.90753613  0.08192500  0.33016712    -0.05690
C1850       C  0.91613259  0.07436237  0.29830741    -0.33120
C1851       C  0.94855462  0.07082128  0.28934244     0.36130
C1852       C  0.97338222  0.07526072  0.31219771    -0.06050
C1853       C  0.96490165  0.08176510  0.34442197    -0.33020
C1854       C  0.93214266  0.08442547  0.35361854     0.36030
H1855       H  0.89756768  0.07113575  0.28017315     0.16400
O1856       O  0.95598762  0.06429560  0.25765366    -0.60520
H1857       H  0.98359528  0.08657173  0.36201848     0.16420
O1858       O  0.92450578  0.09157472  0.38505676    -0.60610
H1859       H  0.92446008  0.07052971  0.39647455     0.43410
H1860       H  0.95351096  0.08512161  0.24604220     0.43370
C1861       C  0.10249720  0.12709499  0.38215150    -0.05690
C1862       C  0.09088288  0.10718626  0.40732395    -0.33120
C1863       C  0.08913579  0.11825254  0.43959642     0.36130
C1864       C  0.09872485  0.14988975  0.44724113    -0.06050
C1865       C  0.11014633  0.16952047  0.42180848    -0.33020
C1866       C  0.11222746  0.15854339  0.39002232     0.36030
H1867       H  0.08296804  0.08297638  0.40198643     0.16400
O1868       O  0.07822216  0.09787580  0.46327062    -0.60520
H1869       H  0.11781387  0.19397903  0.42631699     0.16420
O1870       O  0.12244091  0.17960948  0.36658186    -0.60610
H1871       H  0.14638416  0.17842435  0.36718960     0.43410
H1872       H  0.05446718  0.10121866  0.46383252     0.43370
C1873       C  0.01929072  0.38026047  0.32235198    -0.05690
C1874       C  0.03868357  0.40726048  0.31687244    -0.33120
C1875       C  0.07112666  0.40735306  0.32700272     0.36130
C1876       C  0.08480149  0.38004474  0.34243614    -0.06050
C1877       C  0.06495603  0.35382032  0.34957615    -0.33020
C1878       C  0.03231961  0.35407034  0.34016640     0.36030
H1879       H  0.02936137  0.42739424  0.30286414     0.16400
O1880       O  0.08977438  0.43372561  0.32037114    -0.60520
H1881       H  0.07486496  0.33295833  0.36201148     0.16420
O1882       O  0.01357977  0.32789850  0.34726929    -0.60610
H1883       H  0.00137677  0.33398228  0.36700538     0.43410
H1884       H  0.09971436  0.42921499  0.29902922     0.43370
C1885       C  0.97882266  0.25790758  0.30120391    -0.05690
C1886       C  0.96661430  0.22767496  0.30946426    -0.33120
C1887       C  0.98756157  0.20128367  0.31058107     0.36130
C1888       C  0.02069364  0.20602651  0.30518253    -0.06050
C1889       C  0.03331021  0.23692646  0.30293643    -0.33020
C1890       C  0.01239669  0.26294196  0.29971020     0.36030
H1891       H  0.94077426  0.22380606  0.31082123     0.16400
O1892       O  0.97537921  0.17079265  0.31393297    -0.60520
H1893       H  0.05892345  0.24042189  0.29873017     0.16420
O1894       O  0.02475334  0.29249501  0.29174313    -0.60610
H1895       H  0.03095532  0.29099041  0.26861661     0.43410
H1896       H  0.96631365  0.16529363  0.29248322     0.43370
C1897       C  0.89135831  0.33928026  0.38043084    -0.05690
C1898       C  0.88434108  0.36211070  0.40471333    -0.33120
C1899       C  0.88422129  0.35311999  0.43777709     0.36130
C1900       C  0.89192605  0.32113199  0.44685709    -0.06050
C1901       C  0.90048399  0.29915459  0.42235438    -0.33020
C1902       C  0.89983002  0.30773856  0.38979731     0.36030
H1903       H  0.87824842  0.38667092  0.39801007     0.16400
O1904       O  0.87509614  0.37525874  0.46062275    -0.60520
H1905       H  0.90734391  0.27458232  0.42831244     0.16420
O1906       O  0.90896283  0.28522786  0.36726319    -0.60610
H1907       H  0.88947235  0.27201861  0.36353479     0.43410
H1908       H  0.89535580  0.38611022  0.46698251     0.43370
C1909       C  0.09204681  0.34178673  0.88412767    -0.05690
C1910       C  0.07156949  0.31720255  0.89516849    -0.33120
C1911       C  0.06842557  0.31042878  0.92818824     0.36130
C1912       C  0.08630216  0.32791491  0.95095525    -0.06050
C1913       C  0.10530533  0.35375569  0.94016088    -0.33020
C1914       C  0.10775717  0.36117107  0.90705275     0.36030
H1915       H  0.05861875  0.30247162  0.87800656     0.16400
O1916       O  0.05079507  0.28418430  0.93766425    -0.60520
H1917       H  0.12026167  0.36660107  0.95719316     0.16420
O1918       O  0.12788341  0.38540294  0.89727885    -0.60610
H1919       H  0.11459311  0.40536408  0.89855545     0.43410
H1920       H  0.03006069  0.29316138  0.94583725     0.43370
C1921       C  0.08631768  0.18780569  0.18405020    -0.05690
C1922       C  0.11838888  0.19195419  0.17443330    -0.33120
C1923       C  0.12734999  0.21724670  0.15389236     0.36130
C1924       C  0.10397992  0.23981502  0.14216982    -0.06050
C1925       C  0.07152634  0.23530632  0.15156683    -0.33020
C1926       C  0.06270981  0.20971600  0.17240688     0.36030
H1927       H  0.13698380  0.17585609  0.18372433     0.16400
O1928       O  0.15931566  0.21925519  0.14533390    -0.60520
H1929       H  0.05291733  0.25165484  0.14285004     0.16420
O1930       O  0.03127429  0.20740078  0.18261159    -0.60610
H1931       H  0.02096132  0.19238262  0.16724433     0.43410
H1932       H  0.16952238  0.23212609  0.16263383     0.43370
C1933       C  0.16036422  0.45379445  0.07985626    -0.05690
C1934       C  0.15116332  0.44041516  0.05018503    -0.33120
C1935       C  0.13910887  0.40872742  0.04886640     0.36130
C1936       C  0.13668176  0.38991440  0.07737888    -0.06050
C1937       C  0.14395528  0.40402178  0.10698699    -0.33020
C1938       C  0.15468059  0.43578573  0.10843033     0.36030
H1939       H  0.15499787  0.45370781  0.02795220     0.16400
O1940       O  0.13155651  0.39573801  0.01942125    -0.60520
H1941       H  0.14159442  0.39024016  0.12915275     0.16420
O1942       O  0.16044434  0.44880908  0.13816936    -0.60610
H1943       H  0.14009656  0.46013296  0.14412395     0.43410
H1944       H  0.15169661  0.38500538  0.01187148     0.43370
C1945       C  0.38829057  0.31850144  0.01032356    -0.05690
C1946       C  0.36341765  0.30911748  0.03168130    -0.33120
C1947       C  0.36139701  0.32107577  0.06296868     0.36130
C1948       C  0.38474706  0.34269290  0.07400687    -0.06050
C1949       C  0.40855451  0.35372758  0.05218823    -0.33020
C1950       C  0.41047261  0.34174530  0.02057202     0.36030
H1951       H  0.34558665  0.29160544  0.02450288     0.16400
O1952       O  0.33723719  0.31029623  0.08289470    -0.60520
H1953       H  0.42682774  0.37048622  0.06007937     0.16420
O1954       O  0.43477976  0.35195616  0.00054756    -0.60610
H1955       H  0.45325647  0.33720448  0.00495798     0.43410
H1956       H  0.31894235  0.32552448  0.07946736     0.43370
C1957       C  0.27453980  0.31032292  0.95151922    -0.05690
C1958       C  0.27814343  0.31584236  0.98464229    -0.33120
C1959       C  0.25103213  0.31739510  0.00444033     0.36130
C1960       C  0.22040395  0.31327775  0.99059004    -0.06050
C1961       C  0.21674947  0.31286900  0.95693223    -0.33020
C1962       C  0.24389271  0.31162695  0.93715913     0.36030
H1963       H  0.30192342  0.31565733  0.99547615     0.16400
O1964       O  0.25491803  0.31858833  0.03736109    -0.60520
H1965       H  0.19303087  0.31003511  0.94625613     0.16420
O1966       O  0.24016183  0.30664389  0.90462586    -0.60610
H1967       H  0.24034469  0.32847191  0.89481435     0.43410
H1968       H  0.25897731  0.29598079  0.04422208     0.43370
C1969       C  0.34494371  0.45145298  0.87491531    -0.05690
C1970       C  0.35356792  0.43592238  0.84601579    -0.33120
C1971       C  0.36335073  0.40349580  0.84589704     0.36130
C1972       C  0.36602679  0.38664483  0.87522691    -0.06050
C1973       C  0.36059609  0.40320769  0.90444360    -0.33020
C1974       C  0.34973745  0.43533276  0.90440531     0.36030
H1975       H  0.35143622  0.44883131  0.82341003     0.16400
O1976       O  0.36925246  0.38827837  0.81708756    -0.60520
H1977       H  0.36274389  0.39054055  0.92730470     0.16420
O1978       O  0.34122902  0.44971535  0.93300550    -0.60610
H1979       H  0.36071749  0.46158475  0.93990126     0.43410
H1980       H  0.39254210  0.39166885  0.81269888     0.43370
C1981       C  0.33165823  0.95538546  0.07320798    -0.05690
C1982       C  0.36406195  0.94550304  0.07071378    -0.33120
C1983       C  0.37244664  0.91248315  0.07268174     0.36130
C1984       C  0.34819707  0.88899703  0.07761880    -0.06050
C1985       C  0.31581684  0.89925226  0.07851854    -0.33020
C1986       C  0.30754429  0.93177707  0.07642625     0.36030
H1987       H  0.38291939  0.96334627  0.06881696     0.16400
O1988       O  0.40428987  0.90356687  0.06967158    -0.60520
H1989       H  0.29648438  0.88204828  0.08145891     0.16420
O1990       O  0.27551269  0.94053691  0.07858151    -0.60610
H1991       H  0.26980120  0.93833462  0.10178519     0.43410
H1992       H  0.41348242  0.90563638  0.09167791     0.43370
C1993       C  0.20448136  0.19397032  0.05106960    -0.05690
C1994       C  0.23711333  0.19967150  0.04295537    -0.33120
C1995       C  0.26162958  0.17708224  0.05037208     0.36130
C1996       C  0.25390287  0.14869196  0.06711471    -0.06050
C1997       C  0.22112661  0.14238124  0.07395396    -0.33020
C1998       C  0.19653434  0.16456803  0.06583200     0.36030
H1999       H  0.24375262  0.22231028  0.03173610     0.16400
O2000       O  0.29319334  0.18418553  0.04349737    -0.60520
H2001       H  0.21467288  0.12051105  0.08673128     0.16420
O2002       O  0.16515357  0.15812094  0.07418846    -0.60610
H2003       H  0.16275281  0.16590669  0.09671397     0.43410
H2004       H  0.29690076  0.17590788  0.02132819     0.43370
C2005       C  0.20816299  0.06784272  0.18266188    -0.05690
C2006       C  0.21567041  0.05929534  0.21486246    -0.33120
C2007       C  0.19397632  0.06571385  0.24031342     0.36130
C2008       C  0.16450623  0.08136262  0.23377960    -0.06050
C2009       C  0.15640009  0.08840483  0.20135364    -0.33020
C2010       C  0.17777275  0.08143266  0.17590055     0.36030
H2011       H  0.23900017  0.04859776  0.22041120     0.16400
O2012       O  0.20258296  0.05830945  0.27147105    -0.60520
H2013       H  0.13374096  0.10054256  0.19586445     0.16420
O2014       O  0.16985822  0.09052519  0.14499520    -0.60610
H2015       H  0.15877895  0.07164646  0.13562944     0.43410
H2016       H  0.21478848  0.07722542  0.27922630     0.43370
C2017       C  0.46821157  0.08716056  0.13291665    -0.05690
C2018       C  0.46017818  0.09744019  0.10144658    -0.33120
C2019       C  0.42759254  0.09829625  0.09119242     0.36130
C2020       C  0.40268619  0.08940891  0.11271374    -0.06050
C2021       C  0.41090512  0.07821576  0.14353691    -0.33020
C2022       C  0.44306615  0.07641224  0.15344748     0.36030
H2023       H  0.47891602  0.10586768  0.08527652     0.16400
O2024       O  0.42030258  0.10857051  0.06051533    -0.60520
H2025       H  0.39220568  0.07018725  0.15998833     0.16420
O2026       O  0.44958875  0.06440580  0.18371814    -0.60610
H2027       H  0.45517753  0.04136937  0.18033466     0.43410
H2028       H  0.41667697  0.13214477  0.06241914     0.43370
C2029       C  0.32724016  0.00585879  0.37623465    -0.05690
C2030       C  0.30409889  0.03088041  0.37488861    -0.33120
C2031       C  0.31320888  0.06310071  0.37260636     0.36130
C2032       C  0.34612628  0.07118643  0.37251246    -0.06050
C2033       C  0.36940331  0.04628113  0.37590352    -0.33020
C2034       C  0.36014174  0.01374339  0.37738431     0.36030
H2035       H  0.27859475  0.02520545  0.37370602     0.16400
O2036       O  0.28963162  0.08652755  0.37120426    -0.60520
H2037       H  0.39488464  0.05201434  0.37649978     0.16420
O2038       O  0.38336113  0.98997270  0.37748285    -0.60610
H2039       H  0.38646795  0.98430903  0.40057923     0.43410
H2040       H  0.28345851  0.08794279  0.34808286     0.43370
C2041       C  0.32961453  0.01147598  0.20063785    -0.05690
C2042       C  0.33637382  0.97919496  0.19306074    -0.33120
C2043       C  0.33476609  0.95562827  0.21700096     0.36130
C2044       C  0.32604945  0.96476788  0.24842979    -0.06050
C2045       C  0.32447343  0.99747911  0.25682679    -0.33020
C2046       C  0.32623453  0.02104089  0.23289469     0.36030
H2047       H  0.33881590  0.97183113  0.16804608     0.16400
O2048       O  0.33645489  0.92375319  0.20846339    -0.60520
H2049       H  0.31836546  0.00457273  0.28130036     0.16420
O2050       O  0.32024548  0.05268918  0.24059385    -0.60610
H2051       H  0.29637699  0.05479716  0.24181742     0.43410
H2052       H  0.35943300  0.91749712  0.21151571     0.43370
C2053       C  0.40396842  0.87513188  0.33145133    -0.05690
C2054       C  0.41490577  0.85666208  0.30525240    -0.33120
C2055       C  0.44719163  0.85725716  0.29528748     0.36130
C2056       C  0.47024082  0.87594073  0.31191034    -0.06050
C2057       C  0.45999542  0.89300929  0.33941437    -0.33020
C2058       C  0.42718428  0.89292613  0.34909752     0.36030
H2059       H  0.39810073  0.84242892  0.29135809     0.16400
O2060       O  0.45594598  0.83930069  0.26889620    -0.60520
H2061       H  0.47707467  0.90761635  0.35254615     0.16420
O2062       O  0.41796029  0.91167377  0.37478745    -0.60610
H2063       H  0.42060657  0.89763305  0.39405719     0.43410
H2064       H  0.44812591  0.85169818  0.24987031     0.43370
C2065       C  0.03346819  0.94851506  0.23004408    -0.05690
C2066       C  0.01460159  0.97026121  0.21142434    -0.33120
C2067       C  0.01856647  0.00373979  0.21404782     0.36130
C2068       C  0.04154537  0.01574891  0.23565210    -0.06050
C2069       C  0.05696162  0.99394585  0.25720364    -0.33020
C2070       C  0.05301173  0.96066978  0.25454854     0.36030
H2071       H  0.99933683  0.96114087  0.19230892     0.16400
O2072       O  0.00175478  0.02406352  0.19385008    -0.60520
H2073       H  0.07369627  0.00259357  0.27526018     0.16420
O2074       O  0.07162216  0.94037674  0.27312781    -0.60610
H2075       H  0.05756055  0.93415199  0.29149906     0.43410
H2076       H  0.01512077  0.02562580  0.17399632     0.43370
C2077       C  0.89897304  0.87346789  0.11914199    -0.05690
C2078       C  0.91981339  0.89631421  0.10527313    -0.33120
C2079       C  0.95271040  0.89677370  0.11360020     0.36130
C2080       C  0.96495290  0.87372933  0.13549124    -0.06050
C2081       C  0.94413634  0.84969679  0.14744123    -0.33020
C2082       C  0.91142864  0.84975144  0.13979800     0.36030
H2083       H  0.91021164  0.91481246  0.08932370     0.16400
O2084       O  0.97208389  0.92061272  0.10154521    -0.60520
H2085       H  0.95296478  0.83128429  0.16390737     0.16420
O2086       O  0.89177644  0.82647255  0.15257295    -0.60610
H2087       H  0.88604721  0.83419781  0.17452478     0.43410
H2088       H  0.97036342  0.93847392  0.11734797     0.43370
C2089       C  0.15925865  0.89495921  0.20819858    -0.05690
C2090       C  0.19178774  0.89837528  0.19982943    -0.33120
C2091       C  0.21554413  0.90137318  0.22385732     0.36130
C2092       C  0.20703928  0.90064351  0.25710635    -0.06050
C2093       C  0.17419248  0.89920336  0.26534071    -0.33020
C2094       C  0.15051472  0.89586209  0.24123564     0.36030
H2095       H  0.19902326  0.89709338  0.17468172     0.16400
O2096       O  0.24711789  0.90519068  0.21450967    -0.60520
H2097       H  0.16697200  0.89892456  0.29052156     0.16420
O2098       O  0.11892647  0.89156674  0.25026277    -0.60610
H2099       H  0.11703410  0.86823052  0.25507146     0.43410
H2100       H  0.25490915  0.88329758  0.20866835     0.43370
C2101       C  0.09254063  0.81563119  0.99901550    -0.05690
C2102       C  0.09408689  0.84899661  0.00503761    -0.33120
C2103       C  0.09698064  0.86083388  0.03692156     0.36130
C2104       C  0.09909015  0.83922959  0.06334447    -0.06050
C2105       C  0.09705501  0.80616985  0.05725669    -0.33020
C2106       C  0.09340608  0.79436031  0.02595102     0.36030
H2107       H  0.09370670  0.86589683  0.98503380     0.16400
O2108       O  0.09798517  0.89345006  0.04190266    -0.60520
H2109       H  0.09714926  0.78910606  0.07715958     0.16420
O2110       O  0.08975860  0.76172980  0.02221216    -0.60610
H2111       H  0.11170425  0.75231291  0.02504313     0.43410
H2112       H  0.12127321  0.89888578  0.04162250     0.43370
C2113       C  0.96868466  0.51435473  0.23620419    -0.05690
C2114       C  0.94997706  0.50106967  0.26075453    -0.33120
C2115       C  0.94597575  0.46766942  0.26256614     0.36130
C2116       C  0.96084173  0.44699814  0.23942902    -0.06050
C2117       C  0.98340196  0.46000729  0.21801625    -0.33020
C2118       C  0.98734085  0.49355939  0.21626861     0.36030
H2119       H  0.93552986  0.51659139  0.27619556     0.16400
O2120       O  0.92625980  0.45553498  0.28630308    -0.60520
H2121       H  0.99585100  0.44461015  0.20085479     0.16420
O2122       O  0.00691459  0.50617833  0.19266477    -0.60610
H2123       H  0.99450159  0.50440617  0.17226398     0.43410
H2124       H  0.90387095  0.46040067  0.27911637     0.43370
C2125       C  0.03163535  0.58496023  0.13736507    -0.05690
C2126       C  0.05406161  0.60823078  0.14726655    -0.33120
C2127       C  0.08590586  0.60761834  0.13670251     0.36130
C2128       C  0.09670615  0.58284068  0.11623311    -0.06050
C2129       C  0.07407579  0.56053048  0.10442779    -0.33020
C2130       C  0.04162168  0.56147921  0.11488096     0.36030
H2131       H  0.04730336  0.62661290  0.16447103     0.16400
O2132       O  0.10661892  0.63075230  0.14773486    -0.60520
H2133       H  0.08189870  0.54129816  0.08850945     0.16420
O2134       O  0.02053255  0.53852888  0.10429510    -0.60610
H2135       H  0.02406647  0.51972308  0.11875227     0.43410
H2136       H  0.10537261  0.64839096  0.13154061     0.43370
C2137       C  0.98299667  0.70314799  0.15392731    -0.05690
C2138       C  0.01659461  0.69964900  0.15682595    -0.33120
C2139       C  0.03635580  0.72639223  0.15556915     0.36130
C2140       C  0.02225866  0.75687413  0.15119220    -0.06050
C2141       C  0.98932552  0.76003328  0.14401580    -0.33020
C2142       C  0.96948394  0.73310828  0.14514734     0.36030
H2143       H  0.02721244  0.67666480  0.16320721     0.16400
O2144       O  0.06866177  0.72298142  0.16249279    -0.60520
H2145       H  0.97864225  0.78364889  0.14018650     0.16420
O2146       O  0.93679215  0.73687549  0.14083157    -0.60610
H2147       H  0.92838877  0.74502302  0.16175410     0.43410
H2148       H  0.07018579  0.72421994  0.18639269     0.43370
C2149       C  0.88481471  0.63923257  0.00669801    -0.05690
C2150       C  0.90442750  0.61280818  0.01516413    -0.33120
C2151       C  0.90673250  0.60250330  0.04763194     0.36130
C2152       C  0.88910732  0.61865406  0.07237421    -0.06050
C2153       C  0.86774659  0.64340046  0.06328901    -0.33020
C2154       C  0.86564224  0.65382094  0.03117789     0.36030
H2155       H  0.91940794  0.60129604  0.99698718     0.16400
O2156       O  0.92800119  0.57806544  0.05503854    -0.60520
H2157       H  0.85347966  0.65589148  0.08139755     0.16420
O2158       O  0.84499388  0.67894952  0.02409036    -0.60610
H2159       H  0.85579403  0.69854954  0.03226141     0.43410
H2160       H  0.91538806  0.55799532  0.05279560     0.43370
C2161       C  0.91017666  0.74099359  0.31510051    -0.05690
C2162       C  0.91583610  0.74843144  0.28258186    -0.33120
C2163       C  0.92084135  0.72378975  0.25974511     0.36130
C2164       C  0.91984504  0.69084665  0.26905175    -0.06050
C2165       C  0.91570940  0.68351769  0.30189499    -0.33020
C2166       C  0.91050662  0.70818596  0.32466201     0.36030
H2167       H  0.91494119  0.77330630  0.27458202     0.16400
O2168       O  0.92590682  0.73224434  0.22807881    -0.60520
H2169       H  0.91480547  0.65859279  0.30968812     0.16420
O2170       O  0.90335333  0.69981735  0.35593782    -0.60610
H2171       H  0.92249482  0.70619492  0.36865967     0.43410
H2172       H  0.94972756  0.73244650  0.22537822     0.43370
C2173       C  0.73225780  0.52831682  0.44179833    -0.05690
C2174       C  0.75004648  0.50346776  0.45641339    -0.33120
C2175       C  0.75041041  0.50046624  0.49019568     0.36130
C2176       C  0.73302000  0.52264284  0.50973473    -0.06050
C2177       C  0.71186253  0.54442505  0.49505918    -0.33020
C2178       C  0.71125123  0.54737071  0.46138124     0.36030
H2179       H  0.76541271  0.48791712  0.44193114     0.16400
O2180       O  0.77134361  0.47866853  0.50408921    -0.60520
H2181       H  0.69845328  0.56161452  0.50963872     0.16420
O2182       O  0.69067391  0.56979231  0.44791249    -0.60610
H2183       H  0.70114386  0.59092412  0.45132127     0.43410
H2184       H  0.75759720  0.46060868  0.51142584     0.43370
C2185       C  0.63977904  0.39681006  0.37679040    -0.05690
C2186       C  0.66344919  0.40764388  0.39844423    -0.33120
C2187       C  0.67016363  0.44051868  0.40153563     0.36130
C2188       C  0.65354878  0.46334410  0.38243361    -0.06050
C2189       C  0.62856773  0.45271813  0.36212571    -0.33020
C2190       C  0.62137201  0.41974806  0.35949870     0.36030
H2191       H  0.67745991  0.39039774  0.41245730     0.16400
O2192       O  0.69558822  0.44974376  0.42052322    -0.60520
H2193       H  0.61644477  0.46975093  0.34624474     0.16420
O2194       O  0.59791454  0.41010821  0.33833955    -0.60610
H2195       H  0.60924074  0.40691655  0.31742803     0.43410
H2196       H  0.68560121  0.45787712  0.44075186     0.43370
C2197       C  0.79295756  0.55873987  0.26958506    -0.05690
C2198       C  0.82001130  0.57668675  0.27824989    -0.33120
C2199       C  0.84344536  0.58467567  0.25503662     0.36130
C2200       C  0.84055352  0.57402458  0.22267424    -0.06050
C2201       C  0.81461085  0.55421314  0.21452181    -0.33020
C2202       C  0.79073574  0.54687310  0.23761715     0.36030
H2203       H  0.82203277  0.58617311  0.30253010     0.16400
O2204       O  0.86913062  0.60326250  0.26412561    -0.60520
H2205       H  0.81195214  0.54582395  0.18991009     0.16420
O2206       O  0.76447324  0.52923595  0.22833755    -0.60610
H2207       H  0.76976188  0.50669569  0.23453256     0.43410
H2208       H  0.86060375  0.62566793  0.26484445     0.43370
C2209       C  0.74260945  0.65056008  0.36549348    -0.05690
C2210       C  0.77443544  0.64646500  0.35373447    -0.33120
C2211       C  0.79940465  0.66701716  0.36318268     0.36130
C2212       C  0.79274605  0.69278169  0.38407203    -0.06050
C2213       C  0.76113722  0.69673432  0.39626770    -0.33020
C2214       C  0.73633104  0.67541710  0.38772136     0.36030
H2215       H  0.78004276  0.62708982  0.33707641     0.16400
O2216       O  0.82972699  0.66289149  0.35032528    -0.60520
H2217       H  0.75559794  0.71674653  0.41217281     0.16420
O2218       O  0.70579278  0.68018428  0.39979970    -0.60610
H2219       H  0.70567325  0.66892983  0.42098340     0.43410
H2220       H  0.84118917  0.64834202  0.36562292     0.43370
C2221       C  0.59315584  0.59591539  0.33215203    -0.05690
C2222       C  0.57002390  0.57915350  0.35076935    -0.33120
C2223       C  0.53707810  0.57965703  0.34240610     0.36130
C2224       C  0.52680288  0.59688351  0.31492961    -0.06050
C2225       C  0.54944728  0.61559349  0.29797738    -0.33020
C2226       C  0.58214603  0.61531938  0.30632504     0.36030
H2227       H  0.57762922  0.56420164  0.37092300     0.16400
O2228       O  0.51581100  0.56105422  0.35953089    -0.60520
H2229       H  0.54194916  0.62962088  0.27710124     0.16420
O2230       O  0.60324495  0.63287170  0.28788075    -0.60610
H2231       H  0.60421144  0.65426119  0.29843367     0.43410
H2232       H  0.50743001  0.57529231  0.37688894     0.43370
C2233       C  0.73569225  0.45189440  0.94201248    -0.05690
C2234       C  0.75424181  0.47070249  0.96349175    -0.33120
C2235       C  0.75321321  0.46543609  0.99707777     0.36130
C2236       C  0.73335082  0.44114470  0.00950158    -0.06050
C2237       C  0.71140586  0.42600452  0.98828112    -0.33020
C2238       C  0.71238713  0.43133377  0.95490269     0.36030
H2239       H  0.77255200  0.48663589  0.95389348     0.16400
O2240       O  0.77415288  0.48152078  0.01680709    -0.60520
H2241       H  0.69454723  0.40829267  0.99734343     0.16420
O2242       O  0.69390400  0.41270549  0.93496231    -0.60610
H2243       H  0.67459967  0.42613235  0.92995783     0.43410
H2244       H  0.76261992  0.50168410  0.02280211     0.43370
C2245       C  0.65893110  0.50696682  0.06541833    -0.05690
C2246       C  0.68143920  0.52912769  0.05338192    -0.33120
C2247       C  0.67640226  0.56248368  0.05650166     0.36130
C2248       C  0.64816283  0.57449110  0.07172291    -0.06050
C2249       C  0.62474445  0.55217404  0.08199682    -0.33020
C2250       C  0.63011917  0.51879151  0.07923255     0.36030
H2251       H  0.70424553  0.52047687  0.04364349     0.16400
O2252       O  0.69949273  0.58301710  0.04484589    -0.60520
H2253       H  0.60264658  0.56054745  0.09339768     0.16420
O2254       O  0.60830422  0.49793195  0.09261219    -0.60610
H2255       H  0.59450231  0.49103403  0.07437270     0.43410
H2256       H  0.71576821  0.58458892  0.06233388     0.43370
C2257       C  0.77893533  0.39154830  0.18597052    -0.05690
C2258       C  0.80915610  0.40680148  0.18482726    -0.33120
C2259       C  0.83231532  0.40160921  0.20937249     0.36130
C2260       C  0.82546972  0.38112558  0.23583066    -0.06050
C2261       C  0.79534551  0.36635943  0.23727731    -0.33020
C2262       C  0.77224090  0.37142054  0.21308809     0.36030
H2263       H  0.81503895  0.42250119  0.16474141     0.16400
O2264       O  0.86209552  0.41556762  0.20652623    -0.60520
H2265       H  0.78995136  0.34996831  0.25697391     0.16420
O2266       O  0.74314745  0.35615709  0.21640223    -0.60610
H2267       H  0.74632729  0.33473636  0.20626221     0.43410
H2268       H  0.87524884  0.40015612  0.19364896     0.43370
C2269       C  0.67042124  0.49620904  0.25294098    -0.05690
C2270       C  0.65785146  0.50828493  0.22387820    -0.33120
C2271       C  0.65452797  0.48776172  0.19756593     0.36130
C2272       C  0.66285159  0.45509301  0.20102780    -0.06050
C2273       C  0.67013846  0.44222835  0.23139168    -0.33020
C2274       C  0.67417804  0.46274372  0.25748908     0.36030
H2275       H  0.65419655  0.53395687  0.22042900     0.16400
O2276       O  0.64624060  0.50017391  0.16788817    -0.60520
H2277       H  0.67667551  0.41698429  0.23396502     0.16420
O2278       O  0.68511192  0.45031219  0.28627154    -0.60610
H2279       H  0.66533371  0.44484725  0.29860421     0.43410
H2280       H  0.66637849  0.50953893  0.15902076     0.43370
C2281       C  0.58676000  0.38184567  0.11599083    -0.05690
C2282       C  0.56053350  0.38909732  0.09529404    -0.33120
C2283       C  0.52844635  0.39058315  0.10731460     0.36130
C2284       C  0.52242021  0.38554515  0.14053884    -0.06050
C2285       C  0.54905456  0.38054537  0.16109601    -0.33020
C2286       C  0.58044990  0.37799400  0.14925991     0.36030
H2287       H  0.56478545  0.39266045  0.06969969     0.16400
O2288       O  0.50330439  0.39512172  0.08621727    -0.60520
H2289       H  0.54551636  0.37733933  0.18687195     0.16420
O2290       O  0.60497931  0.37240018  0.17090219    -0.60610
H2291       H  0.60496352  0.34880168  0.17480505     0.43410
H2292       H  0.50002268  0.41879724  0.08512164     0.43370
C2293       C  0.96134437  0.23582520  0.00919780    -0.05690
C2294       C  0.98290859  0.21564075  0.99176931    -0.33120
C2295       C  0.01650949  0.21924178  0.99415282     0.36130
C2296       C  0.02886113  0.24333971  0.01411573    -0.06050
C2297       C  0.00719151  0.26621601  0.02762489    -0.33020
C2298       C  0.97367019  0.26264435  0.02518318     0.36030
H2299       H  0.97371118  0.19479018  0.97914955     0.16400
O2300       O  0.03668779  0.19696154  0.98007417    -0.60520
H2301       H  0.01628980  0.28594528  0.04198540     0.16420
O2302       O  0.95355490  0.28296762  0.04202586    -0.60610
H2303       H  0.94663968  0.29954893  0.02610366     0.43410
H2304       H  0.04125091  0.20564528  0.95819905     0.43370
C2305       C  0.89205913  0.13948894  0.94480732    -0.05690
C2306       C  0.87458645  0.15707268  0.92125322    -0.33120
C2307       C  0.87344726  0.14768597  0.88915673     0.36130
C2308       C  0.89075356  0.12038615  0.87885326    -0.06050
C2309       C  0.90761232  0.10174980  0.90212047    -0.33020
C2310       C  0.90813455  0.11102299  0.93503669     0.36030
H2311       H  0.86169195  0.17903138  0.92736028     0.16400
O2312       O  0.85520912  0.16564958  0.86787796    -0.60520
H2313       H  0.92150535  0.08083397  0.89458274     0.16420
O2314       O  0.92578840  0.09320286  0.95678021    -0.60610
H2315       H  0.91059930  0.07686265  0.96525297     0.43410
H2316       H  0.86782513  0.18546233  0.86372234     0.43370
C2317       C  0.91193101  0.27551726  0.18063360    -0.05690
C2318       C  0.93689242  0.26347395  0.16052450    -0.33120
C2319       C  0.93194349  0.23644932  0.13996854     0.36130
C2320       C  0.90172741  0.22051620  0.13943647    -0.06050
C2321       C  0.87708641  0.23315266  0.15950142    -0.33020
C2322       C  0.88176443  0.25998701  0.17933977     0.36030
H2323       H  0.96054462  0.27439969  0.16138373     0.16400
O2324       O  0.95657773  0.22643382  0.12011555    -0.60520
H2325       H  0.85324879  0.22258626  0.15962231     0.16420
O2326       O  0.85609456  0.27133116  0.19720401    -0.60610
H2327       H  0.85345342  0.25569431  0.21518384     0.43410
H2328       H  0.96910782  0.21056147  0.13308576     0.43370
C2329       C  0.78624859  0.26687169  0.06645601    -0.05690
C2330       C  0.77593769  0.28868263  0.04223454    -0.33120
C2331       C  0.74894998  0.30935341  0.04710905     0.36130
C2332       C  0.73173753  0.30861677  0.07664711    -0.06050
C2333       C  0.74194161  0.28648790  0.10043262    -0.33020
C2334       C  0.76858537  0.26603251  0.09569847     0.36030
H2335       H  0.78857038  0.28947576  0.01929848     0.16400
O2336       O  0.74088282  0.33135489  0.02361294    -0.60520
H2337       H  0.72972879  0.28567433  0.12361362     0.16420
O2338       O  0.77790693  0.24607755  0.12057853    -0.60610
H2339       H  0.76244992  0.22794871  0.12024153     0.43410
H2340       H  0.72581413  0.31991297  0.00909674     0.43370
C2341       C  0.85884320  0.06841413  0.08390672    -0.05690
C2342       C  0.83364715  0.05856380  0.10429691    -0.33120
C2343       C  0.82209062  0.02692646  0.10377357     0.36130
C2344       C  0.83586328  0.00351691  0.08300101    -0.06050
C2345       C  0.86257161  0.01255931  0.06405004    -0.33020
C2346       C  0.87392558  0.04467831  0.06420601     0.36030
H2347       H  0.82172773  0.07588290  0.11994123     0.16400
O2348       O  0.79688931  0.01918702  0.12376238    -0.60520
H2349       H  0.87356773  0.99521111  0.04780671     0.16420
O2350       O  0.89805989  0.05303617  0.04313083    -0.60610
H2351       H  0.91845406  0.04873420  0.05499718     0.43410
H2352       H  0.77728103  0.02785332  0.11291166     0.43370
C2353       C  0.52851362  0.21727610  0.93854427    -0.05690
C2354       C  0.51467560  0.23414104  0.96440603    -0.33120
C2355       C  0.48099696  0.23353525  0.96926689     0.36130
C2356       C  0.46086076  0.21604114  0.94802172    -0.06050
C2357       C  0.47526528  0.19523719  0.92582541    -0.33020
C2358       C  0.50871354  0.19555720  0.92104120     0.36030
H2359       H  0.52939905  0.24980222  0.97908463     0.16400
O2360       O  0.46743124  0.25340721  0.99213922    -0.60520
H2361       H  0.46033818  0.18181282  0.90919304     0.16420
O2362       O  0.52139371  0.17622152  0.89726691    -0.60610
H2363       H  0.52338032  0.15452405  0.90721615     0.43410
H2364       H  0.46728490  0.27526853  0.98236166     0.43370
C2365       C  0.59048925  0.13966381  0.99890630    -0.05690
C2366       C  0.56719773  0.15256264  0.01993444    -0.33120
C2367       C  0.56851793  0.14596076  0.05317586     0.36130
C2368       C  0.59327714  0.12601999  0.06586261    -0.06050
C2369       C  0.61491043  0.11091187  0.04453002    -0.33020
C2370       C  0.61390508  0.11796255  0.01131764     0.36030
H2371       H  0.54964482  0.16997403  0.01101736     0.16400
O2372       O  0.54632140  0.16030154  0.07331551    -0.60520
H2373       H  0.63381609  0.09523335  0.05384562     0.16420
O2374       O  0.63774385  0.10587903  0.99159312    -0.60610
H2375       H  0.62799038  0.08702025  0.98081168     0.43410
H2376       H  0.52916588  0.14404541  0.07642787     0.43370
C2377       C  0.71820070  0.15484456  0.95668118    -0.05690
C2378       C  0.74832585  0.14803907  0.94296537    -0.33120
C2379       C  0.77573463  0.14828587  0.96240790     0.36130
C2380       C  0.77242207  0.15393515  0.99570506    -0.06050
C2381       C  0.74180050  0.15473839  0.00997913    -0.33020
C2382       C  0.71452409  0.15587498  0.99047545     0.36030
H2383       H  0.75115604  0.14678594  0.91694418     0.16400
O2384       O  0.80570380  0.14572610  0.94849123    -0.60520
H2385       H  0.73911188  0.15851631  0.03576609     0.16420
O2386       O  0.68471271  0.16083536  0.00430378    -0.60610
H2387       H  0.68422332  0.18380845  0.01087119     0.43410
H2388       H  0.80807287  0.16566102  0.93546346     0.43370
C2389       C  0.64910418  0.01122510  0.86397639    -0.05690
C2390       C  0.66391564  0.03382977  0.84331151    -0.33120
C2391       C  0.65596705  0.06671444  0.84421142     0.36130
C2392       C  0.63208705  0.07822423  0.86572615    -0.06050
C2393       C  0.61561962  0.05529619  0.88498311    -0.33020
C2394       C  0.62391396  0.02213791  0.88418413     0.36030
H2395       H  0.68296136  0.02612926  0.82697319     0.16400
O2396       O  0.67224161  0.08739566  0.82416292    -0.60520
H2397       H  0.59717197  0.06322533  0.90184782     0.16420
O2398       O  0.60890964  0.00122791  0.90492490    -0.60610
H2399       H  0.59017487  0.99293014  0.89268246     0.43410
H2400       H  0.69305389  0.09159017  0.83518656     0.43370
C2401       C  0.70481928  0.27494342  0.89750779    -0.05690
C2402       C  0.73333333  0.26725033  0.88020880    -0.33120
C2403       C  0.75896740  0.28887273  0.87713213     0.36130
C2404       C  0.75726346  0.31970590  0.89116534    -0.06050
C2405       C  0.72959900  0.32733348  0.90982719    -0.33020
C2406       C  0.70362549  0.30528756  0.91312328     0.36030
H2407       H  0.73596571  0.24416179  0.86832710     0.16400
O2408       O  0.78518950  0.28008076  0.85871722    -0.60520
H2409       H  0.72724734  0.35110604  0.92035601     0.16420
O2410       O  0.67721203  0.31391858  0.93126705    -0.60610
H2411       H  0.66288235  0.32602142  0.91625415     0.43410
H2412       H  0.80107628  0.27098764  0.87426105     0.43370
C2413       C  0.52769603  0.51645176  0.72276225    -0.05690
C2414       C  0.51177844  0.49507637  0.74414686    -0.33120
C2415       C  0.51335772  0.46155934  0.73976526     0.36130
C2416       C  0.53109417  0.44912558  0.71375407    -0.06050
C2417       C  0.54283803  0.47070536  0.68999934    -0.33020
C2418       C  0.54115220  0.50413746  0.69430748     0.36030
H2419       H  0.50095908  0.50428075  0.76618500     0.16400
O2420       O  0.50102246  0.44146854  0.76297314    -0.60520
H2421       H  0.55566325  0.46152655  0.66904963     0.16420
O2422       O  0.55639704  0.52404085  0.67275033    -0.60610
H2423       H  0.53929536  0.53105277  0.65744206     0.43410
H2424       H  0.47872323  0.43678201  0.75574005     0.43370
C2425       C  0.47054011  0.38693285  0.62777682    -0.05690
C2426       C  0.45915930  0.36380148  0.60574460    -0.33120
C2427       C  0.42622028  0.36233703  0.59720915     0.36130
C2428       C  0.40380761  0.38386950  0.61112215    -0.06050
C2429       C  0.41531462  0.40783263  0.63209105    -0.33020
C2430       C  0.44824341  0.40941173  0.64049012     0.36030
H2431       H  0.47573178  0.34581564  0.59627863     0.16400
O2432       O  0.41600173  0.33887844  0.57644095    -0.60520
H2433       H  0.39846552  0.42494779  0.64269423     0.16420
O2434       O  0.45783122  0.43119371  0.66333891    -0.60610
H2435       H  0.46690529  0.44948549  0.65092101     0.43410
H2436       H  0.41766087  0.34861269  0.55458842     0.43370
C2437       C  0.58048668  0.27542594  0.76073207    -0.05690
C2438       C  0.58477547  0.24282632  0.75162665    -0.33120
C2439       C  0.59146552  0.21859832  0.77451836     0.36130
C2440       C  0.59443297  0.22653589  0.80726463    -0.06050
C2441       C  0.58907671  0.25876977  0.81672163    -0.33020
C2442       C  0.58168704  0.28302238  0.79385326     0.36030
H2443       H  0.58347162  0.23606980  0.72638398     0.16400
O2444       O  0.59683071  0.18758027  0.76439247    -0.60520
H2445       H  0.59155214  0.26532581  0.84192728     0.16420
O2446       O  0.57787770  0.31425559  0.80394587    -0.60610
H2447       H  0.55471451  0.31634586  0.80983525     0.43410
H2448       H  0.57533649  0.17722051  0.76508724     0.43370
C2449       C  0.66639092  0.38281443  0.71264807    -0.05690
C2450       C  0.66159867  0.40975821  0.73280055    -0.33120
C2451       C  0.68130071  0.41484273  0.76024026     0.36130
C2452       C  0.70627368  0.39265203  0.76825066    -0.06050
C2453       C  0.71125497  0.36623000  0.74748761    -0.33020
C2454       C  0.69180194  0.36121525  0.72031108     0.36030
H2455       H  0.64169427  0.42623662  0.72806024     0.16400
O2456       O  0.67574341  0.44148725  0.77901653    -0.60520
H2457       H  0.73055422  0.34904305  0.75219396     0.16420
O2458       O  0.69794466  0.33490470  0.70115358    -0.60610
H2459       H  0.68976356  0.31612007  0.71348912     0.43410
H2460       H  0.68855775  0.45889563  0.76886631     0.43370
C2461       C  0.59952250  0.34591648  0.56530703    -0.05690
C2462       C  0.59303728  0.31377747  0.55799017    -0.33120
C2463       C  0.59037975  0.30335936  0.52612053     0.36130
C2464       C  0.59531353  0.32500267  0.49998690    -0.06050
C2465       C  0.60080612  0.35766577  0.50720326    -0.33020
C2466       C  0.60230726  0.36827624  0.53965564     0.36030
H2467       H  0.58927770  0.29646206  0.57727907     0.16400
O2468       O  0.58232284  0.27176947  0.52088459    -0.60520
H2469       H  0.60484039  0.37475925  0.48780838     0.16420
O2470       O  0.60799548  0.40011997  0.54598267    -0.60610
H2471       H  0.58639898  0.41067106  0.54562213     0.43410
H2472       H  0.60214218  0.25906191  0.52584615     0.43370
C2473       C  0.44479175  0.01530800  0.73239703    -0.05690
C2474       C  0.41548536  0.99884612  0.72948374    -0.33120
C2475       C  0.41483679  0.96642467  0.72107175     0.36130
C2476       C  0.44364418  0.94820910  0.72002209    -0.06050
C2477       C  0.47315521  0.96413005  0.72466479    -0.33020
C2478       C  0.47385506  0.99752703  0.73033076     0.36030
H2479       H  0.39291445  0.01221977  0.72987858     0.16400
O2480       O  0.38555724  0.95172817  0.71676866    -0.60520
H2481       H  0.49549479  0.95035472  0.72577984     0.16420
O2482       O  0.50299469  0.01282488  0.73226059    -0.60610
H2483       H  0.50835459  0.01300801  0.75560866     0.43410
H2484       H  0.37599032  0.94997277  0.73868214     0.43370
C2485       C  0.52386673  0.07511368  0.63508697    -0.05690
C2486       C  0.53499948  0.09659615  0.61137768    -0.33120
C2487       C  0.56820787  0.09898512  0.60456367     0.36130
C2488       C  0.59080441  0.08020744  0.62212428    -0.06050
C2489       C  0.57939230  0.05785705  0.64485889    -0.33020
C2490       C  0.54632887  0.05511234  0.65119835     0.36030
H2491       H  0.51819289  0.11309003  0.59972839     0.16400
O2492       O  0.57846360  0.12147576  0.58256219    -0.60520
H2493       H  0.59622849  0.04258090  0.65800937     0.16420
O2494       O  0.53629649  0.03426649  0.67486060    -0.60610
H2495       H  0.52962357  0.01455599  0.66324198     0.43410
H2496       H  0.57601751  0.11108500  0.56116799     0.43370
C2497       C  0.48630748  0.20145893  0.64925322    -0.05690
C2498       C  0.47197657  0.23077595  0.63998321    -0.33120
C2499       C  0.49073104  0.25813197  0.63734666     0.36130
C2500       C  0.52393712  0.25578462  0.64338108    -0.06050
C2501       C  0.53900837  0.22574395  0.64721353    -0.33020
C2502       C  0.52015924  0.19834044  0.65058027     0.36030
H2503       H  0.44593879  0.23335502  0.63832537     0.16400
O2504       O  0.47603380  0.28758977  0.63306523    -0.60520
H2505       H  0.56480467  0.22404324  0.65153852     0.16420
O2506       O  0.53469283  0.16917496  0.65713638    -0.60610
H2507       H  0.54138334  0.17024713  0.68012190     0.43410
H2508       H  0.47066681  0.28861913  0.60973560     0.43370
C2509       C  0.39107545  0.14689030  0.50167613    -0.05690
C2510       C  0.41423777  0.12486477  0.51303434    -0.33120
C2511       C  0.41463512  0.11563041  0.54571849     0.36130
C2512       C  0.39124224  0.12811351  0.56758897    -0.06050
C2513       C  0.36732339  0.14904797  0.55581789    -0.33020
C2514       C  0.36684059  0.15811138  0.52323625     0.36030
H2515       H  0.43294765  0.11595359  0.49694716     0.16400
O2516       O  0.43900731  0.09560206  0.55628432    -0.60520
H2517       H  0.34905719  0.15870335  0.57199388     0.16420
O2518       O  0.34264012  0.17839570  0.51277236    -0.60610
H2519       H  0.32476645  0.16402875  0.50631420     0.43410
H2520       H  0.45659425  0.11013431  0.56317479     0.43370
C2521       C  0.41859589  0.19361617  0.76626935    -0.05690
C2522       C  0.40036712  0.22167853  0.75940585    -0.33120
C2523       C  0.39684157  0.24645294  0.78196430     0.36130
C2524       C  0.41149924  0.24403099  0.81254506    -0.06050
C2525       C  0.43110070  0.21691948  0.81921670    -0.33020
C2526       C  0.43471044  0.19183058  0.79640693     0.36030
H2527       H  0.38807997  0.22443953  0.73645353     0.16400
O2528       O  0.37729125  0.27230385  0.77452511    -0.60520
H2529       H  0.44196698  0.21418239  0.84289578     0.16420
O2530       O  0.45363559  0.16563495  0.80409684    -0.60610
H2531       H  0.43914322  0.15077395  0.81593205     0.43410
H2532       H  0.39211109  0.28909927  0.76629735     0.43370
C2533       C  0.24778514  0.01331255  0.94418721    -0.05690
C2534       C  0.22087359  0.00767810  0.96448722    -0.33120
C2535       C  0.22376870  0.00852719  0.99823097     0.36130
C2536       C  0.25394139  0.01473900  0.01192285    -0.06050
C2537       C  0.28145754  0.01573199  0.99166076    -0.33020
C2538       C  0.27853940  0.01500663  0.95793796     0.36030
H2539       H  0.19688082  0.00631779  0.95411142     0.16400
O2540       O  0.19652441  0.00783855  0.01710887    -0.60520
H2541       H  0.30500203  0.02049940  0.00186741     0.16420
O2542       O  0.30512679  0.02053318  0.93898441    -0.60610
H2543       H  0.31325894  0.99881924  0.93294996     0.43410
H2544       H  0.19404173  0.98491949  0.02339882     0.43370
C2545       C  0.14043989  0.88978917  0.86938177    -0.05690
C2546       C  0.13264789  0.91000919  0.89568153    -0.33120
C2547       C  0.14231708  0.94244751  0.89601512     0.36130
C2548       C  0.15956124  0.95497392  0.86956450    -0.06050
C2549       C  0.16480125  0.93497614  0.84235343    -0.33020
C2550       C  0.15606778  0.90269172  0.84244158     0.36030
H2551       H  0.12049379  0.90017732  0.91668481     0.16400
O2552       O  0.13673301  0.96077378  0.92298776    -0.60520
H2553       H  0.17722219  0.94390813  0.82112045     0.16420
O2554       O  0.16283774  0.88392701  0.81598495    -0.60610
H2555       H  0.18576901  0.87723088  0.81852231     0.43410
H2556       H  0.11536988  0.97115075  0.91929498     0.43370
C2557       C  0.02728274  0.07951730  0.81368652    -0.05690
C2558       C  0.03358770  0.08312272  0.84693121    -0.33120
C2559       C  0.06576374  0.08459559  0.85842148     0.36130
C2560       C  0.09195069  0.08347283  0.83643791    -0.06050
C2561       C  0.08550312  0.07885030  0.80369638    -0.33020
C2562       C  0.05403492  0.07599095  0.79241451     0.36030
H2563       H  0.01371613  0.08574163  0.86381659     0.16400
O2564       O  0.07126892  0.08784946  0.89090387    -0.60520
H2565       H  0.10521618  0.07648385  0.78653553     0.16420
O2566       O  0.04984972  0.07015404  0.76006076    -0.60610
H2567       H  0.05390347  0.04672176  0.75745572     0.43410
H2568       H  0.07212512  0.11141273  0.89466376     0.43370
C2569       C  0.28769687  0.19443310  0.88863515    -0.05690
C2570       C  0.28108854  0.17029963  0.91176813    -0.33120
C2571       C  0.25424048  0.14977486  0.90839707     0.36130
C2572       C  0.23336271  0.15317330  0.88161167    -0.06050
C2573       C  0.23931389  0.17820557  0.85946922    -0.33020
C2574       C  0.26611768  0.19818687  0.86242343     0.36030
H2575       H  0.29680340  0.16723502  0.93248696     0.16400
O2576       O  0.25008488  0.12511725  0.93009843    -0.60520
H2577       H  0.22403224  0.18114025  0.83838371     0.16420
O2578       O  0.27131569  0.22087476  0.83882968    -0.60610
H2579       H  0.28565054  0.21014256  0.82283194     0.43410
H2580       H  0.23618270  0.13427937  0.94738352     0.43370
C2581       C  0.33075117  0.08810596  0.71788038    -0.05690
C2582       C  0.31627429  0.11308371  0.73620185    -0.33120
C2583       C  0.29675983  0.10674948  0.76312738     0.36130
C2584       C  0.29128452  0.07492252  0.77322814    -0.06050
C2585       C  0.30529563  0.04965319  0.75515571    -0.33020
C2586       C  0.32462365  0.05599220  0.72760392     0.36030
H2587       H  0.32029693  0.13810669  0.73001871     0.16400
O2588       O  0.28333429  0.13208247  0.77983509    -0.60520
H2589       H  0.30015455  0.02489625  0.76160300     0.16420
O2590       O  0.33726691  0.03061002  0.71051146    -0.60610
H2591       H  0.32029874  0.02483938  0.69470782     0.43410
H2592       H  0.26408511  0.13877199  0.76713851     0.43370
C2593       C  0.25027420  0.94344554  0.50044647    -0.05690
C2594       C  0.27585737  0.92593498  0.48726140    -0.33120
C2595       C  0.27838760  0.92266764  0.45374230     0.36130
C2596       C  0.25500303  0.93716600  0.43296492    -0.06050
C2597       C  0.23232233  0.95852413  0.44610600    -0.33020
C2598       C  0.22995276  0.96185879  0.47971005     0.36030
H2599       H  0.29183374  0.91204484  0.50280318     0.16400
O2600       O  0.30322935  0.90419935  0.44154959    -0.60520
H2601       H  0.21494951  0.97066757  0.43062538     0.16420
O2602       O  0.20526306  0.98029973  0.49221298    -0.60610
H2603       H  0.21560730  0.00046163  0.49951964     0.43410
H2604       H  0.29690326  0.88152029  0.44550586     0.43370
C2605       C  0.15950912  0.01164033  0.57987178    -0.05690
C2606       C  0.17393276  0.03325439  0.60151015    -0.33120
C2607       C  0.16453602  0.06552849  0.60296611     0.36130
C2608       C  0.13983933  0.07705357  0.58267593    -0.06050
C2609       C  0.12375542  0.05505130  0.56239082    -0.33020
C2610       C  0.13353302  0.02253891  0.56080604     0.36030
H2611       H  0.19349935  0.02523949  0.61682928     0.16400
O2612       O  0.17978693  0.08560597  0.62425256    -0.60520
H2613       H  0.10470234  0.06339973  0.54641275     0.16420
O2614       O  0.11864569  0.00224037  0.53953173    -0.60610
H2615       H  0.13128705  0.00392103  0.51921518     0.43410
H2616       H  0.20091542  0.09056011  0.61411173     0.43370
C2617       C  0.18790160  0.97340443  0.69248750    -0.05690
C2618       C  0.16694190  0.96482975  0.71782352    -0.33120
C2619       C  0.16456082  0.98419511  0.74519654     0.36130
C2620       C  0.18286008  0.01233492  0.74678802    -0.06050
C2621       C  0.20103612  0.02262202  0.72059294    -0.33020
C2622       C  0.20388073  0.00351711  0.69338046     0.36030
H2623       H  0.15418722  0.94215287  0.71746443     0.16400
O2624       O  0.14676446  0.97407125  0.77123857    -0.60520
H2625       H  0.21551147  0.04422940  0.72238480     0.16420
O2626       O  0.22522408  0.01278599  0.66964268    -0.60610
H2627       H  0.21990212  0.03553538  0.66423864     0.43410
H2628       H  0.12590195  0.98590182  0.76956957     0.43370
C2629       C  0.08842978  0.87599766  0.61558965    -0.05690
C2630       C  0.06482578  0.89162665  0.59610611    -0.33120
C2631       C  0.03163617  0.89181383  0.60465788     0.36130
C2632       C  0.02140477  0.87636453  0.63318518    -0.06050
C2633       C  0.04476085  0.85924693  0.65137172    -0.33020
C2634       C  0.07760177  0.85891464  0.64295178     0.36030
H2635       H  0.07226393  0.90511745  0.57495510     0.16400
O2636       O  0.01006866  0.90928889  0.58643078    -0.60520
H2637       H  0.03770364  0.84691887  0.67334268     0.16420
O2638       O  0.09894530  0.84201894  0.66204134    -0.60610
H2639       H  0.10287341  0.85601686  0.68099787     0.43410
H2640       H  0.00175991  0.89390013  0.57022423     0.43370
C2641       C  0.29234122  0.89444141  0.67624476    -0.05690
C2642       C  0.29530200  0.91685414  0.70167176    -0.33120
C2643       C  0.31435282  0.90998410  0.72927902     0.36130
C2644       C  0.33069449  0.88012630  0.73201279    -0.06050
C2645       C  0.32810752  0.85823965  0.70597990    -0.33020
C2646       C  0.30907745  0.86502903  0.67871849     0.36030
H2647       H  0.28169153  0.93927180  0.70071799     0.16400
O2648       O  0.31591223  0.93215369  0.75370098    -0.60520
H2649       H  0.34097405  0.83538653  0.70663092     0.16420
O2650       O  0.30671960  0.84247489  0.65471027    -0.60610
H2651       H  0.28879287  0.82822614  0.66143381     0.43410
H2652       H  0.29769820  0.92689344  0.76834452     0.43370
C2653       C  0.46546801  0.74124583  0.50349552    -0.05690
C2654       C  0.47820550  0.76856642  0.51793024    -0.33120
C2655       C  0.51166119  0.77138149  0.52177766     0.36130
C2656       C  0.53295481  0.74662616  0.51088522    -0.06050
C2657       C  0.52041775  0.72142741  0.49268818    -0.33020
C2658       C  0.48682351  0.71858739  0.48896889     0.36030
H2659       H  0.46225347  0.78593463  0.52944050     0.16400
O2660       O  0.52325085  0.79774248  0.53782950    -0.60520
H2661       H  0.53626964  0.70246191  0.48388880     0.16420
O2662       O  0.47481782  0.69113560  0.47521657    -0.60610
H2663       H  0.48165926  0.69195531  0.45225002     0.43410
H2664       H  0.51869518  0.79369879  0.56103212     0.43370
C2665       C  0.40345219  0.64586981  0.44133278    -0.05690
C2666       C  0.41904105  0.66435671  0.41770030    -0.33120
C2667       C  0.41748332  0.65609407  0.38505707     0.36130
C2668       C  0.39982778  0.62892117  0.37530796    -0.06050
C2669       C  0.38535156  0.60945971  0.39910825    -0.33020
C2670       C  0.38676571  0.61801878  0.43195273     0.36030
H2671       H  0.43096998  0.68647104  0.42438022     0.16400
O2672       O  0.43368634  0.67459007  0.36286821    -0.60520
H2673       H  0.37183905  0.58836818  0.39211255     0.16420
O2674       O  0.36955605  0.60063869  0.45423858    -0.60610
H2675       H  0.38540327  0.58534298  0.46386124     0.43410
H2676       H  0.41933037  0.69339581  0.35863041     0.43370
C2677       C  0.29040554  0.77854554  0.55075155    -0.05690
C2678       C  0.25942644  0.77507356  0.53696950    -0.33120
C2679       C  0.23384049  0.79652041  0.54458710     0.36130
C2680       C  0.23858229  0.82104184  0.56742817    -0.06050
C2681       C  0.26979243  0.82490121  0.58047317    -0.33020
C2682       C  0.29554133  0.80420930  0.57209500     0.36030
H2683       H  0.25486659  0.75511946  0.52082193     0.16400
O2684       O  0.20396518  0.79205020  0.53115484    -0.60520
H2685       H  0.27416900  0.84410657  0.59753990     0.16420
O2686       O  0.32505893  0.80801375  0.58653918    -0.60610
H2687       H  0.33706529  0.82282105  0.57210427     0.43410
H2688       H  0.20447558  0.80405790  0.51040002     0.43370
C2689       C  0.40028101  0.72360690  0.63947345    -0.05690
C2690       C  0.38050323  0.72445117  0.66701072    -0.33120
C2691       C  0.38431549  0.74792213  0.69087649     0.36130
C2692       C  0.40820208  0.77195874  0.68762498    -0.06050
C2693       C  0.42860718  0.77072565  0.66028225    -0.33020
C2694       C  0.42486219  0.74676411  0.63643031     0.36030
H2695       H  0.36096605  0.70738441  0.66948889     0.16400
O2696       O  0.36330085  0.74793064  0.71656082    -0.60520
H2697       H  0.44739142  0.78849076  0.65723210     0.16420
O2698       O  0.44368690  0.74774712  0.60914196    -0.60610
H2699       H  0.46278194  0.73402468  0.61415436     0.43410
H2700       H  0.37197214  0.73145364  0.73173913     0.43370
C2701       C  0.35531554  0.58290350  0.57635306    -0.05690
C2702       C  0.32280515  0.57675979  0.58290918    -0.33120
C2703       C  0.31074778  0.54556534  0.58233611     0.36130
C2704       C  0.33141338  0.51887588  0.57581142    -0.06050
C2705       C  0.36407569  0.52484599  0.56885731    -0.33020
C2706       C  0.37600732  0.55661547  0.56872589     0.36030
H2707       H  0.30606338  0.59646657  0.58749645     0.16400
O2708       O  0.27814477  0.54170188  0.58701755    -0.60520
H2709       H  0.38043842  0.50493626  0.56392500     0.16420
O2710       O  0.40801152  0.56157239  0.56185717    -0.60610
H2711       H  0.40942385  0.56160786  0.53792174     0.43410
H2712       H  0.27471194  0.54399936  0.61064362     0.43370
C2713       C  0.03328612  0.72203985  0.43818799    -0.05690
C2714       C  0.01442196  0.69827887  0.42281658    -0.33120
C2715       C  0.98072788  0.69821592  0.42542136     0.36130
C2716       C  0.96525467  0.72226413  0.44339454    -0.06050
C2717       C  0.98427285  0.74266401  0.46289292    -0.33020
C2718       C  0.01816424  0.74272203  0.46033948     0.36030
H2719       H  0.02565397  0.68098333  0.40666194     0.16400
O2720       O  0.96321247  0.67747206  0.40679346    -0.60520
H2721       H  0.97261734  0.76148692  0.47694349     0.16420
O2722       O  0.03557492  0.76559475  0.47637796    -0.60610
H2723       H  0.04086349  0.75571686  0.49759402     0.43410
H2724       H  0.95719802  0.65963115  0.42155582     0.43370
C2725       C  0.09110103  0.64446857  0.50163403    -0.05690
C2726       C  0.10966207  0.61761042  0.51133402    -0.33120
C2727       C  0.11224883  0.60906233  0.54412996     0.36130
C2728       C  0.09671019  0.62795017  0.56785965    -0.06050
C2729       C  0.07713390  0.65404050  0.55793877    -0.33020
C2730       C  0.07409142  0.66216703  0.52518006     0.36030
H2731       H  0.12383816  0.60446814  0.49361497     0.16400
O2732       O  0.13141305  0.58333695  0.55281182    -0.60520
H2733       H  0.06445397  0.66851340  0.57575074     0.16420
O2734       O  0.05677850  0.68923041  0.51668639    -0.60610
H2735       H  0.03554129  0.68121174  0.50928696     0.43410
H2736       H  0.15325921  0.59242134  0.55603182     0.43370
C2737       C  0.25762430  0.80901084  0.36514639    -0.05690
C2738       C  0.24173206  0.81201106  0.39524046    -0.33120
C2739       C  0.21561745  0.79179350  0.40367587     0.36130
C2740       C  0.20512705  0.76776363  0.38207514    -0.06050
C2741       C  0.22133050  0.76480332  0.35225621    -0.33020
C2742       C  0.24703937  0.78488559  0.34380159     0.36030
H2743       H  0.24888853  0.83073733  0.41187993     0.16400
O2744       O  0.20144464  0.79497383  0.43348385    -0.60520
H2745       H  0.21415233  0.74643678  0.33521395     0.16420
O2746       O  0.26152608  0.78078905  0.31423579    -0.60610
H2747       H  0.28013701  0.76611237  0.31830197     0.43410
H2748       H  0.18456205  0.81185772  0.43066642     0.43370
C2749       C  0.09758961  0.72024864  0.30395733    -0.05690
C2750       C  0.11989390  0.72615869  0.27908439    -0.33120
C2751       C  0.11631863  0.75240850  0.25801528     0.36130
C2752       C  0.08999556  0.77418805  0.26136751    -0.06050
C2753       C  0.06721950  0.76808543  0.28596035    -0.33020
C2754       C  0.07087921  0.74150164  0.30715567     0.36030
H2755       H  0.14100263  0.71072666  0.27645235     0.16400
O2756       O  0.13954372  0.75705758  0.23479543    -0.60520
H2757       H  0.04636359  0.78381219  0.28868868     0.16420
O2758       O  0.04883152  0.73721562  0.33154839    -0.60610
H2759       H  0.05415489  0.75366907  0.34799156     0.43410
H2760       H  0.13432696  0.74165460  0.21731161     0.43370
C2761       C  0.22296523  0.65130554  0.45127955    -0.05690
C2762       C  0.25327264  0.65173210  0.43637850    -0.33120
C2763       C  0.28077148  0.65542203  0.45522757     0.36130
C2764       C  0.27751115  0.65757727  0.48897234    -0.06050
C2765       C  0.24781768  0.65137093  0.50384916    -0.33020
C2766       C  0.22028055  0.64851867  0.48499092     0.36030
H2767       H  0.25528275  0.65355013  0.41030597     0.16400
O2768       O  0.31028794  0.65929953  0.44058264    -0.60520
H2769       H  0.24532983  0.65256014  0.52990718     0.16420
O2770       O  0.19054726  0.64747087  0.49965708    -0.60610
H2771       H  0.18522988  0.62425535  0.50094519     0.43410
H2772       H  0.31025580  0.68173522  0.43223340     0.43370
C2773       C  0.12421800  0.57399389  0.37429185    -0.05690
C2774       C  0.13162924  0.56000784  0.34463321    -0.33120
C2775       C  0.14055555  0.52756006  0.34257160     0.36130
C2776       C  0.14404727  0.50833992  0.37089120    -0.06050
C2777       C  0.13450618  0.52182614  0.40058682    -0.33020
C2778       C  0.12423599  0.55436249  0.40233253     0.36030
H2779       H  0.13126698  0.57456112  0.32282135     0.16400
O2780       O  0.14756284  0.51532999  0.31259229    -0.60520
H2781       H  0.13688001  0.50787177  0.42263879     0.16420
O2782       O  0.11724100  0.56747726  0.43192935    -0.60610
H2783       H  0.09368960  0.56435071  0.43488586     0.43410
H2784       H  0.12670369  0.51568487  0.30085356     0.43370
loop_ 
_geom_bond_atom_site_label_1 
_geom_bond_atom_site_label_2 
_geom_bond_distance 
_geom_bond_site_symmetry_2 
_ccdc_geom_bond_type 
Fe1          O17   2.058       .  S
Fe1           O7   2.140       .  S
Fe1          O14   2.114       .  S
Fe1           O6   1.998       .  S
Fe1          O12   1.921       .  S
Fe2           O5   2.028       .  S
Fe2           O9   2.091       .  S
Fe2          O13   2.036       .  S
Fe2          O18   2.082       .  S
Fe2          O12   1.925       .  S
Fe3          O21   2.066       .  S
Fe3           O8   2.100       .  S
Fe3          O15   2.022       .  S
Fe3           O4   2.149       .  S
Fe3          O12   1.962       .  S
O4           C11   1.272       .  A
O5           C19   1.264       .  A
O6           C11   1.241       .  A
O7           C10   1.285       .  A
O8           C20   1.284       .  A
O9           C22   1.274       .  A
C10          O15   1.264       .  A
C10        C2725   1.472       .  S
C11        C2713   1.488       .  S
O13          C16   1.267       .  A
O14          C16   1.281       .  A
C16        C2749   1.494       .  S
O17          C22   1.264       .  A
O18          C20   1.276       .  A
C19          O21   1.275       .  A
C19        C2761   1.441       .  S
C20        C2740   1.500       .  S
C22        C2773   1.482       .  S
Fe23         O39   2.049       .  S
Fe23         O29   2.108       .  S
Fe23         O36   2.143       .  S
Fe23         O28   2.009       .  S
Fe23         O34   1.939       .  S
Fe24         O27   2.020       .  S
Fe24         O31   2.072       .  S
Fe24         O35   2.029       .  S
Fe24         O40   2.079       .  S
Fe24         O34   1.955       .  S
Fe25         O43   2.078       .  S
Fe25         O30   2.094       .  S
Fe25         O37   2.032       .  S
Fe25         O26   2.107       .  S
Fe25         O34   1.948       .  S
O26          C33   1.278       .  A
O27          C41   1.267       .  A
O28          C33   1.259       .  A
O29          C32   1.279       .  A
O30          C42   1.273       .  A
O31          C44   1.263       .  A
C32          O37   1.264       .  A
C32        C2665   1.470       .  S
C33        C2653   1.470       .  S
O35          C38   1.273       .  A
O36          C38   1.293       .  A
C38        C2689   1.487       .  S
O39          C44   1.253       .  A
O40          C42   1.266       .  A
C41          O43   1.279       .  A
C41        C2764   1.448       .  S
C42        C2677   1.489       .  S
C44        C2701   1.487       .  S
Fe45         O61   2.059       .  S
Fe45         O51   2.090       .  S
Fe45         O58   2.121       .  S
Fe45         O50   2.016       .  S
Fe45         O56   1.946       .  S
Fe46         O49   2.056       .  S
Fe46         O53   2.084       .  S
Fe46         O57   2.078       .  S
Fe46         O62   2.067       .  S
Fe46         O56   1.945       .  S
Fe47         O65   2.040       .  S
Fe47         O52   2.090       .  S
Fe47         O59   2.060       .  S
Fe47         O48   2.086       .  S
Fe47         O56   1.953       .  S
O48          C55   1.270       .  A
O49          C63   1.278       .  A
O50          C55   1.254       .  A
O51          C54   1.282       .  A
O52          C64   1.271       .  A
O53          C66   1.264       .  A
C54          O59   1.275       .  A
C54        C2605   1.482   1_565  S
C55        C2593   1.469       .  S
O57          C60   1.286       .  A
O58          C60   1.293       .  A
C60        C2680   1.494       .  S
O61          C66   1.255       .  A
O62          C64   1.263       .  A
C63          O65   1.271       .  A
C63        C2617   1.467       .  S
C64        C2641   1.489       .  S
C66        C2629   1.507       .  S
Fe67         O83   2.059       .  S
Fe67         O73   2.138       .  S
Fe67         O80   2.137       .  S
Fe67         O72   2.007       .  S
Fe67         O78   1.940       .  S
Fe68         O71   2.024       .  S
Fe68         O75   2.071       .  S
Fe68         O79   2.015       .  S
Fe68         O84   2.082       .  S
Fe68         O78   1.941       .  S
Fe69         O87   2.066       .  S
Fe69         O74   2.083       .  S
Fe69         O81   1.996   1_545  S
Fe69         O70   2.116       .  S
Fe69         O78   1.956       .  S
O70          C77   1.275       .  A
O71          C85   1.262       .  A
O72          C77   1.254       .  A
O73          C76   1.287   1_545  A
O74          C86   1.278       .  A
O75          C88   1.266       .  A
C76          O81   1.261       .  A
C76        C2548   1.488       .  S
C77        C2533   1.474       .  S
O79          C82   1.269       .  A
O80          C82   1.290       .  A
C82        C2572   1.491       .  S
O83          C88   1.258       .  A
O84          C86   1.272       .  A
C85          O87   1.273       .  A
C85        C2620   1.432       .  S
C86        C2584   1.489       .  S
C88        C2560   1.484       .  S
Fe89        O105   2.025       .  S
Fe89         O95   2.101       .  S
Fe89        O102   2.144       .  S
Fe89         O94   1.965       .  S
Fe89        O100   1.936       .  S
Fe90         O93   2.016       .  S
Fe90         O97   2.078       .  S
Fe90        O101   2.040       .  S
Fe90        O106   2.062       .  S
Fe90        O100   1.954       .  S
Fe91        O109   2.076       .  S
Fe91         O96   2.086       .  S
Fe91        O103   2.044       .  S
Fe91         O92   2.104       .  S
Fe91        O100   1.967       .  S
O92          C99   1.274       .  A
O93         C107   1.270       .  A
O94          C99   1.249       .  A
O95          C98   1.279       .  A
O96         C108   1.269       .  A
O97         C110   1.261       .  A
C98         O103   1.266       .  A
C98        C2485   1.472       .  S
C99        C2473   1.458       .  S
O101        C104   1.276       .  A
O102        C104   1.294       .  A
C104       C2581   1.510       .  S
O105        C110   1.249       .  A
O106        C108   1.265       .  A
C107        O109   1.280       .  A
C107       C2497   1.451       .  S
C108       C2521   1.503       .  S
C110       C2512   1.485       .  S
Fe111       O127   2.063       .  S
Fe111       O117   2.161       .  S
Fe111       O124   2.133       .  S
Fe111       O116   2.000       .  S
Fe111       O122   1.925       .  S
Fe112       O115   2.020       .  S
Fe112       O119   2.085       .  S
Fe112       O123   2.028       .  S
Fe112       O128   2.082       .  S
Fe112       O122   1.932       .  S
Fe113       O131   2.072       .  S
Fe113       O118   2.099       .  S
Fe113       O125   2.027       .  S
Fe113       O114   2.142       .  S
Fe113       O122   1.952       .  S
O114        C121   1.275       .  A
O115        C129   1.263       .  A
O116        C121   1.246       .  A
O117        C120   1.291       .  A
O118        C130   1.282       .  A
O119        C132   1.272       .  A
C120        O125   1.264       .  A
C120       C2425   1.488       .  S
C121       C2416   1.483       .  S
O123        C126   1.266       .  A
O124        C126   1.287       .  A
C126       C2449   1.496       .  S
O127        C132   1.264       .  A
O128        C130   1.274       .  A
C129        O131   1.276       .  A
C129       C2500   1.438       .  S
C130       C2437   1.499       .  S
C132       C2461   1.486       .  S
Fe133       O149   2.061       .  S
Fe133       O139   2.140       .  S
Fe133       O146   2.111       .  S
Fe133       O138   2.003       .  S
Fe133       O144   1.925       .  S
Fe134       O137   2.039       .  S
Fe134       O141   2.112       .  S
Fe134       O145   2.056       .  S
Fe134       O150   2.090       .  S
Fe134       O144   1.919       .  S
Fe135       O153   2.059       .  S
Fe135       O140   2.109       .  S
Fe135       O147   2.021       .  S
Fe135       O136   2.146       .  S
Fe135       O144   1.965       .  S
O136        C143   1.274       .  A
O137        C151   1.269       .  A
O138        C143   1.244       .  A
O139        C142   1.285       .  A
O140        C152   1.285       .  A
O141        C154   1.278       .  A
C142        O147   1.263       .  A
C142       C2365   1.474       .  S
C143       C2353   1.492       .  S
O145        C148   1.270       .  A
O146        C148   1.281       .  A
C148       C2440   1.485       .  S
O149        C154   1.266       .  A
O150        C152   1.277       .  A
C151        O153   1.274       .  A
C151       C2377   1.447       .  S
C152       C2401   1.519       .  S
C154       C2392   1.506       .  S
Fe155       O171   2.076       .  S
Fe155       O161   2.118       .  S
Fe155       O168   2.153       .  S
Fe155       O160   2.014       .  S
Fe155       O166   1.951       .  S
Fe156       O159   2.029       .  S
Fe156       O163   2.063       .  S
Fe156       O167   2.052       .  S
Fe156       O172   2.055       .  S
Fe156       O166   1.956       .  S
Fe157       O175   2.072       .  S
Fe157       O162   2.092       .  S
Fe157       O169   2.035   1_554  S
Fe157       O158   2.104       .  S
Fe157       O166   1.960       .  S
O158        C165   1.276       .  A
O159        C173   1.269       .  A
O160        C165   1.256       .  A
O161        C164   1.283   1_554  A
O162        C174   1.270       .  A
O163        C176   1.260       .  A
C164        O169   1.268       .  A
C164       C2305   1.498       .  S
C165       C2293   1.476       .  S
O167        C170   1.279       .  A
O168        C170   1.296       .  A
C170       C2320   1.520       .  S
O171        C176   1.259       .  A
O172        C174   1.263       .  A
C173        O175   1.279       .  A
C173       C2380   1.450   1_554  S
C174       C2329   1.501       .  S
C176       C2341   1.505       .  S
Fe177       O193   2.082       .  S
Fe177       O183   2.147       .  S
Fe177       O190   2.134       .  S
Fe177       O182   2.004       .  S
Fe177       O188   1.922       .  S
Fe178       O181   2.029       .  S
Fe178       O185   2.075       .  S
Fe178       O189   2.024       .  S
Fe178       O194   2.066       .  S
Fe178       O188   1.923       .  S
Fe179       O197   2.076       .  S
Fe179       O184   2.101       .  S
Fe179       O191   2.018       .  S
Fe179       O180   2.144       .  S
Fe179       O188   1.948       .  S
O180        C187   1.277       .  A
O181        C195   1.267       .  A
O182        C187   1.248       .  A
O183        C186   1.287       .  A
O184        C196   1.282       .  A
O185        C198   1.268       .  A
C186        O191   1.263       .  A
C186       C2245   1.475       .  S
C187       C2236   1.490       .  S
O189        C192   1.267       .  A
O190        C192   1.288       .  A
C192       C2332   1.498       .  S
O193        C198   1.266       .  A
O194        C196   1.269       .  A
C195        O197   1.278       .  A
C195       C2272   1.441       .  S
C196       C2257   1.504       .  S
C198       C2281   1.494       .  S
Fe199       O215   2.044       .  S
Fe199       O205   2.149       .  S
Fe199       O212   2.112       .  S
Fe199       O204   2.002       .  S
Fe199       O210   1.916       .  S
Fe200       O203   2.035       .  S
Fe200       O207   2.100       .  S
Fe200       O211   2.042       .  S
Fe200       O216   2.090       .  S
Fe200       O210   1.920       .  S
Fe201       O219   2.072       .  S
Fe201       O206   2.087       .  S
Fe201       O213   2.013       .  S
Fe201       O202   2.137       .  S
Fe201       O210   1.948       .  S
O202        C209   1.272       .  A
O203        C217   1.269       .  A
O204        C209   1.243       .  A
O205        C208   1.288       .  A
O206        C218   1.279       .  A
O207        C220   1.276       .  A
C208        O213   1.263       .  A
C208       C2188   1.473       .  S
C209       C2173   1.486       .  S
O211        C214   1.269       .  A
O212        C214   1.282       .  A
C214       C2209   1.488       .  S
O215        C220   1.264       .  A
O216        C218   1.274       .  A
C217        O219   1.276       .  A
C217       C2269   1.454       .  S
C218       C2197   1.484       .  S
C220       C2221   1.493       .  S
Fe221       O237   2.044       .  S
Fe221       O227   2.101       .  S
Fe221       O234   2.135       .  S
Fe221       O226   2.008       .  S
Fe221       O232   1.946       .  S
Fe222       O225   2.035       .  S
Fe222       O229   2.082       .  S
Fe222       O233   2.048       .  S
Fe222       O238   2.075       .  S
Fe222       O232   1.955       .  S
Fe223       O241   2.073       .  S
Fe223       O228   2.090       .  S
Fe223       O235   2.038       .  S
Fe223       O224   2.099       .  S
Fe223       O232   1.950       .  S
O224        C231   1.274       .  A
O225        C239   1.273       .  A
O226        C231   1.256       .  A
O227        C230   1.280       .  A
O228        C240   1.270       .  A
O229        C242   1.264       .  A
C230        O235   1.269       .  A
C230       C2125   1.486   1_655  S
C231       C2113   1.469       .  S
O233        C236   1.278       .  A
O234        C236   1.293       .  A
C236       C2200   1.487       .  S
O237        C242   1.253       .  A
O238        C240   1.265       .  A
C239        O241   1.280       .  A
C239       C2137   1.456       .  S
C240       C2164   1.498       .  S
C242       C2152   1.498       .  S
Fe243       O259   2.057       .  S
Fe243       O249   2.094       .  S
Fe243       O256   2.133       .  S
Fe243       O248   2.013       .  S
Fe243       O254   1.949       .  S
Fe244       O247   2.027       .  S
Fe244       O251   2.063       .  S
Fe244       O255   2.040       .  S
Fe244       O260   2.055       .  S
Fe244       O254   1.956       .  S
Fe245       O263   2.074       .  S
Fe245       O250   2.086       .  S
Fe245       O257   2.030       .  S
Fe245       O246   2.103       .  S
Fe245       O254   1.957       .  S
O246        C253   1.276       .  A
O247        C261   1.271       .  A
O248        C253   1.257       .  A
O249        C252   1.278   1_455  A
O250        C262   1.269       .  A
O251        C264   1.261       .  A
C252        O257   1.266   1_655  A
C252       C2080   1.479       .  S
C253       C2065   1.471       .  S
O255        C258   1.275       .  A
O256        C258   1.292       .  A
C258       C2089   1.480       .  S
O259        C264   1.255       .  A
O260        C262   1.261       .  A
C261        O263   1.280       .  A
C261       C2140   1.443       .  S
C262       C2752   1.500       .  S
C264       C2104   1.489       .  S
Fe265       O281   2.062       .  S
Fe265       O271   2.151       .  S
Fe265       O278   2.115       .  S
Fe265       O270   2.001       .  S
Fe265       O276   1.918       .  S
Fe266       O269   2.041       .  S
Fe266       O273   2.101       .  S
Fe266       O277   2.051       .  S
Fe266       O282   2.094       .  S
Fe266       O276   1.922       .  S
Fe267       O285   2.070       .  S
Fe267       O272   2.077       .  S
Fe267       O279   2.000       .  S
Fe267       O268   2.135       .  S
Fe267       O276   1.951       .  S
O268        C275   1.272       .  A
O269        C283   1.269       .  A
O270        C275   1.243       .  A
O271        C274   1.288       .  A
O272        C284   1.277       .  A
O273        C286   1.277       .  A
C274        O279   1.261       .  A
C274       C2029   1.475   1_565  S
C275       C2596   1.481       .  S
O277        C280   1.272       .  A
O278        C280   1.284       .  A
C280       C2737   1.499       .  S
O281        C286   1.266       .  A
O282        C284   1.276       .  A
C283        O285   1.276       .  A
C283       C2044   1.451       .  S
C284       C2092   1.494       .  S
C286       C2053   1.502       .  S
Fe287       O303   2.057       .  S
Fe287       O293   2.148       .  S
Fe287       O300   2.127       .  S
Fe287       O292   2.012       .  S
Fe287       O298   1.928       .  S
Fe288       O291   2.040       .  S
Fe288       O295   2.095       .  S
Fe288       O299   2.042       .  S
Fe288       O304   2.089       .  S
Fe288       O298   1.930       .  S
Fe289       O307   2.070       .  S
Fe289       O294   2.078       .  S
Fe289       O301   2.010   1_545  S
Fe289       O290   2.131       .  S
Fe289       O298   1.933       .  S
O290        C297   1.276       .  A
O291        C305   1.267       .  A
O292        C297   1.253       .  A
O293        C296   1.286   1_545  A
O294        C306   1.276       .  A
O295        C308   1.274       .  A
C296        O301   1.261       .  A
C296       C1981   1.477       .  S
C297       C2536   1.476       .  S
O299        C302   1.269       .  A
O300        C302   1.286       .  A
C302       C1996   1.488       .  S
O303        C308   1.264       .  A
O304        C306   1.274       .  A
C305        O307   1.275       .  A
C305       C2041   1.446       .  S
C306       C2005   1.482       .  S
C308       C2020   1.481       .  S
Fe309       O325   2.035       .  S
Fe309       O315   2.098       .  S
Fe309       O322   2.142       .  S
Fe309       O314   2.002       .  S
Fe309       O320   1.939       .  S
Fe310       O313   2.022       .  S
Fe310       O317   2.080       .  S
Fe310       O321   2.029       .  S
Fe310       O326   2.070       .  S
Fe310       O320   1.962       .  S
Fe311       O329   2.079       .  S
Fe311       O316   2.074       .  S
Fe311       O323   2.018       .  S
Fe311       O312   2.107       .  S
Fe311       O320   1.957       .  S
O312        C319   1.276       .  A
O313        C327   1.268       .  A
O314        C319   1.257       .  A
O315        C318   1.277       .  A
O316        C328   1.269       .  A
O317        C330   1.261       .  A
C318        O323   1.263       .  A
C318       C1945   1.482   1_556  S
C319       C2356   1.468       .  S
O321        C324   1.274       .  A
O322        C324   1.293       .  A
C324       C2524   1.485       .  S
O325        C330   1.251       .  A
O326        C328   1.266       .  A
C327        O329   1.281       .  A
C327       C1957   1.445       .  S
C328       C2569   1.497       .  S
C330       C1972   1.476       .  S
Fe331       O347   2.057       .  S
Fe331       O337   2.138       .  S
Fe331       O344   2.135       .  S
Fe331       O336   2.004       .  S
Fe331       O342   1.920       .  S
Fe332       O335   2.027       .  S
Fe332       O339   2.091       .  S
Fe332       O343   2.031       .  S
Fe332       O348   2.088       .  S
Fe332       O342   1.931       .  S
Fe333       O351   2.072       .  S
Fe333       O338   2.092       .  S
Fe333       O345   2.018   1_554  S
Fe333       O334   2.134       .  S
Fe333       O342   1.940       .  S
O334        C341   1.276       .  A
O335        C349   1.266       .  A
O336        C341   1.250       .  A
O337        C340   1.286   1_554  A
O338        C350   1.280       .  A
O339        C352   1.271       .  A
C340        O345   1.263       .  A
C340       C1912   1.471       .  S
C341       C2296   1.483       .  S
O343        C346   1.267       .  A
O344        C346   1.288       .  A
C346       C1924   1.511       .  S
O347        C352   1.261       .  A
O348        C350   1.274       .  A
C349        O351   1.277       .  A
C349       C1960   1.447   1_554  S
C350       C1993   1.488       .  S
C352       C1936   1.482       .  S
Fe353       O369   2.063       .  S
Fe353       O359   2.142       .  S
Fe353       O366   2.106       .  S
Fe353       O358   2.000       .  S
Fe353       O364   1.932       .  S
Fe354       O357   2.035       .  S
Fe354       O361   2.088       .  S
Fe354       O365   2.049       .  S
Fe354       O370   2.082       .  S
Fe354       O364   1.928       .  S
Fe355       O373   2.052       .  S
Fe355       O360   2.112       .  S
Fe355       O367   2.036       .  S
Fe355       O356   2.138       .  S
Fe355       O364   1.970       .  S
O356        C363   1.273       .  A
O357        C371   1.265       .  A
O358        C363   1.243       .  A
O359        C362   1.286       .  A
O360        C372   1.286       .  A
O361        C374   1.273       .  A
C362        O367   1.266       .  A
C362       C1873   1.485   1_655  S
C363       C2116   1.486       .  S
O365        C368   1.270       .  A
O366        C368   1.281       .  A
C368       C2260   1.483       .  S
O369        C374   1.265       .  A
O370        C372   1.275       .  A
C371        O373   1.270       .  A
C371       C1885   1.445       .  S
C372       C2317   1.509       .  S
C374       C1897   1.488       .  S
Fe375       O391   2.065       .  S
Fe375       O381   2.145       .  S
Fe375       O388   2.125       .  S
Fe375       O380   2.004       .  S
Fe375       O386   1.920       .  S
Fe376       O379   2.018       .  S
Fe376       O383   2.091       .  S
Fe376       O387   2.024       .  S
Fe376       O392   2.085       .  S
Fe376       O386   1.927       .  S
Fe377       O395   2.071       .  S
Fe377       O382   2.090       .  S
Fe377       O389   2.009       .  S
Fe377       O378   2.140       .  S
Fe377       O386   1.940       .  S
O378        C385   1.278       .  A
O379        C393   1.266       .  A
O380        C385   1.250       .  A
O381        C384   1.286       .  A
O382        C394   1.279       .  A
O383        C396   1.273       .  A
C384        O389   1.261       .  A
C384       C1852   1.476   1_455  S
C385       C2068   1.486       .  S
O387        C390   1.266       .  A
O388        C390   1.286       .  A
C390       C2008   1.483       .  S
O391        C396   1.265       .  A
O392        C394   1.272       .  A
C393        O395   1.279       .  A
C393       C1888   1.436       .  S
C394       C1921   1.487       .  S
C396       C1861   1.497       .  S
Fe397       O413   2.057       .  S
Fe397       O403   2.099       .  S
Fe397       O410   2.130       .  S
Fe397       O402   2.010       .  S
Fe397       O408   1.945       .  S
Fe398       O401   2.035       .  S
Fe398       O405   2.081       .  S
Fe398       O409   2.048       .  S
Fe398       O414   2.082       .  S
Fe398       O408   1.950       .  S
Fe399       O417   2.070       .  S
Fe399       O404   2.074       .  S
Fe399       O411   2.019       .  S
Fe399       O400   2.094       .  S
Fe399       O408   1.949       .  S
O400        C407   1.272       .  A
O401        C415   1.273       .  A
O402        C407   1.255       .  A
O403        C406   1.280       .  A
O404        C416   1.267       .  A
O405        C418   1.263       .  A
C406        O411   1.264       .  A
C406       C1789   1.481       .  S
C407       C2176   1.467       .  S
O409        C412   1.281       .  A
O410        C412   1.293       .  A
C412       C1804   1.493       .  S
O413        C418   1.256       .  A
O414        C416   1.266       .  A
C415        O417   1.280       .  A
C415       C1825   1.456       .  S
C416       C1813   1.503       .  S
C418       C1837   1.501       .  S
Fe419       O435   2.061       .  S
Fe419       O425   2.115       .  S
Fe419       O432   2.151       .  S
Fe419       O424   2.009       .  S
Fe419       O430   1.951       .  S
Fe420       O423   2.029       .  S
Fe420       O427   2.069       .  S
Fe420       O431   2.052       .  S
Fe420       O436   2.059       .  S
Fe420       O430   1.960       .  S
Fe421       O439   2.071       .  S
Fe421       O426   2.090       .  S
Fe421       O433   2.046       .  S
Fe421       O422   2.107       .  S
Fe421       O430   1.961       .  S
O422        C429   1.276       .  A
O423        C437   1.269       .  A
O424        C429   1.255       .  A
O425        C428   1.283       .  A
O426        C438   1.270       .  A
O427        C440   1.262       .  A
C428        O433   1.268       .  A
C428       C1768   1.499       .  S
C429       C2233   1.474       .  S
O431        C434   1.277       .  A
O432        C434   1.295       .  A
C434       C2404   1.503       .  S
O435        C440   1.257       .  A
O436        C438   1.265       .  A
C437        O439   1.279       .  A
C437       C1828   1.443       .  S
C438       C2452   1.505       .  S
C440       C1777   1.501       .  S
Fe441       O457   2.058       .  S
Fe441       O447   2.116       .  S
Fe441       O454   2.143       .  S
Fe441       O446   2.013       .  S
Fe441       O452   1.946       .  S
Fe442       O445   2.016       .  S
Fe442       O449   2.082       .  S
Fe442       O453   2.039       .  S
Fe442       O458   2.084       .  S
Fe442       O452   1.965       .  S
Fe443       O461   2.077       .  S
Fe443       O448   2.087       .  S
Fe443       O455   2.038       .  S
Fe443       O444   2.109       .  S
Fe443       O452   1.952       .  S
O444        C451   1.276       .  A
O445        C459   1.268       .  A
O446        C451   1.256       .  A
O447        C450   1.283       .  A
O448        C460   1.269       .  A
O449        C462   1.264       .  A
C450        O455   1.268       .  A
C450       C1717   1.499       .  S
C451       C2413   1.479       .  S
O453        C456   1.275       .  A
O454        C456   1.296       .  A
C456       C1816   1.484       .  S
O457        C462   1.256       .  A
O458        C460   1.265       .  A
C459        O461   1.281       .  A
C459       C1741   1.442       .  S
C460       C1729   1.492       .  S
C462       C1753   1.507       .  S
Fe463       O479   2.030       .  S
Fe463       O469   2.109       .  S
Fe463       O476   2.145       .  S
Fe463       O468   1.966       .  S
Fe463       O474   1.937       .  S
Fe464       O467   2.025       .  S
Fe464       O471   2.078       .  S
Fe464       O475   2.043       .  S
Fe464       O480   2.065       .  S
Fe464       O474   1.953       .  S
Fe465       O483   2.066       .  S
Fe465       O470   2.085       .  S
Fe465       O477   2.041       .  S
Fe465       O466   2.098       .  S
Fe465       O474   1.959       .  S
O466        C473   1.272       .  A
O467        C481   1.272       .  A
O468        C473   1.247       .  A
O469        C472   1.282       .  A
O470        C482   1.269       .  A
O471        C484   1.262       .  A
C472        O477   1.268       .  A
C472       C1693   1.482       .  S
C473       C2476   1.454       .  S
O475        C478   1.277       .  A
O476        C478   1.295       .  A
C478       C2644   1.505       .  S
O479        C484   1.250       .  A
O480        C482   1.264       .  A
C481        O483   1.279       .  A
C481       C1744   1.446       .  S
C482       C2692   1.501       .  S
C484       C1705   1.490       .  S
Fe485       O501   2.074       .  S
Fe485       O491   2.147       .  S
Fe485       O498   2.135       .  S
Fe485       O490   2.006       .  S
Fe485       O496   1.926       .  S
Fe486       O489   2.041       .  S
Fe486       O493   2.089       .  S
Fe486       O497   2.042       .  S
Fe486       O502   2.067       .  S
Fe486       O496   1.924       .  S
Fe487       O505   2.068       .  S
Fe487       O492   2.099       .  S
Fe487       O499   2.020       .  S
Fe487       O488   2.135       .  S
Fe487       O496   1.955       .  S
O488        C495   1.275       .  A
O489        C503   1.269       .  A
O490        C495   1.248       .  A
O491        C494   1.287       .  A
O492        C504   1.281       .  A
O493        C506   1.272       .  A
C494        O499   1.264       .  A
C494       C1657   1.476       .  S
C495       C2656   1.483       .  S
O497        C500   1.268       .  A
O498        C500   1.287       .  A
C500       C1732   1.503       .  S
O501        C506   1.266       .  A
O502        C504   1.272       .  A
C503        O505   1.276       .  A
C503       C1672   1.449       .  S
C504       C1801   1.500       .  S
C506       C1681   1.505       .  S
Fe507       O523   2.059       .  S
Fe507       O513   2.105       .  S
Fe507       O520   2.149       .  S
Fe507       O512   2.010       .  S
Fe507       O518   1.932       .  S
Fe508       O511   2.029       .  S
Fe508       O515   2.082       .  S
Fe508       O519   2.039       .  S
Fe508       O524   2.071       .  S
Fe508       O518   1.957       .  S
Fe509       O527   2.088       .  S
Fe509       O514   2.081       .  S
Fe509       O521   2.022       .  S
Fe509       O510   2.107       .  S
Fe509       O518   1.941       .  S
O510        C517   1.277       .  A
O511        C525   1.273       .  A
O512        C517   1.258       .  A
O513        C516   1.280       .  A
O514        C526   1.267       .  A
O515        C528   1.264       .  A
C516        O521   1.265       .  A
C516       C1633   1.477       .  S
C517       C2716   1.473       .  S
O519        C522   1.275       .  A
O520        C522   1.296       .  A
C522       C2161   1.488       .  S
O523        C528   1.254       .  A
O524        C526   1.262       .  A
C525        O527   1.284       .  A
C525       C1669   1.453       .  S
C526       C2212   1.480       .  S
C528       C1645   1.499       .  S
Fe529       O545   2.063       .  S
Fe529       O535   2.032       .  S
Fe529       O542   2.052       .  S
Fe529       O534   2.052       .  S
Fe529       O540   1.950       .  S
Fe530       O533   2.116       .  S
Fe530       O537   2.025       .  S
Fe530       O541   2.140       .  S
Fe530       O546   1.958       .  S
Fe530       O540   1.932       .  S
Fe531       O549   2.056       .  S
Fe531       O536   2.083       .  S
Fe531       O543   2.031       .  S
Fe531       O532   2.086       .  S
Fe531       O540   1.958       .  S
O532        C539   1.272       .  A
O533        C547   1.286       .  A
O534        C539   1.264       .  A
O535        C538   1.270       .  A
O536        C548   1.267       .  A
O537        C550   1.247       .  A
C538        O543   1.270       .  A
C538       C1621   1.434       .  S
C539       C1597   1.499       .  S
O541        C544   1.295       .  A
O542        C544   1.279       .  A
C544       C1609   1.512       .  S
O545        C550   1.258       .  A
O546        C548   1.244       .  A
C547        O549   1.273       .  A
C547       C2101   1.501       .  S
C548       C1588   1.450       .  S
C550       C2545   1.471       .  S
Fe551       O567   2.055       .  S
Fe551       O557   2.046       .  S
Fe551       O564   2.074       .  S
Fe551       O556   2.059       .  S
Fe551       O562   1.929       .  S
Fe552       O555   2.107       .  S
Fe552       O559   2.075       .  S
Fe552       O563   2.114       .  S
Fe552       O568   2.021       .  S
Fe552       O562   1.931       .  S
Fe553       O571   2.060   1_554  S
Fe553       O558   2.062       .  S
Fe553       O565   2.015       .  S
Fe553       O554   2.082       .  S
Fe553       O562   1.920       .  S
O554        C561   1.271       .  A
O555        C569   1.283   1_554  A
O556        C561   1.270       .  A
O557        C560   1.268       .  A
O558        C570   1.271       .  A
O559        C572   1.265       .  A
C560        O565   1.265       .  A
C560       C1624   1.419       .  S
C561       C1561   1.495       .  S
O563        C566   1.282       .  A
O564        C566   1.275       .  A
C566       C1573   1.514       .  S
O567        C572   1.265       .  A
O568        C570   1.260       .  A
C569        O571   1.270       .  A
C569       C1708   1.483       .  S
C570       C1552   1.439       .  S
C572       C1984   1.493       .  S
Fe573       O589   2.050       .  S
Fe573       O579   2.030       .  S
Fe573       O586   2.047       .  S
Fe573       O578   2.062       .  S
Fe573       O584   1.960       .  S
Fe574       O577   2.086       .  S
Fe574       O581   2.059       .  S
Fe574       O585   2.115       .  S
Fe574       O590   2.010       .  S
Fe574       O584   1.962       .  S
Fe575       O593   2.064       .  S
Fe575       O580   2.084       .  S
Fe575       O587   2.032       .  S
Fe575       O576   2.096       .  S
Fe575       O584   1.971       .  S
O576        C583   1.274       .  A
O577        C591   1.277       .  A
O578        C583   1.265       .  A
O579        C582   1.267       .  A
O580        C592   1.269       .  A
O581        C594   1.256       .  A
C582        O587   1.268       .  A
C582       C1525   1.450       .  S
C583       C1537   1.491       .  S
O585        C588   1.287       .  A
O586        C588   1.275       .  A
C588       C1600   1.480       .  S
O589        C594   1.259       .  A
O590        C592   1.256       .  A
C591        O593   1.272       .  A
C591       C1969   1.474       .  S
C592       C1513   1.461       .  S
C594       C1720   1.493       .  S
Fe595       O611   2.090       .  S
Fe595       O601   2.002       .  S
Fe595       O608   2.031       .  S
Fe595       O600   2.093       .  S
Fe595       O606   1.969       .  S
Fe596       O599   2.116       .  S
Fe596       O603   2.055       .  S
Fe596       O607   2.148       .  S
Fe596       O612   2.006       .  S
Fe596       O606   1.946       .  S
Fe597       O615   2.023       .  S
Fe597       O602   2.108       .  S
Fe597       O609   2.065       .  S
Fe597       O598   2.089       .  S
Fe597       O606   1.956       .  S
O598        C605   1.272       .  A
O599        C613   1.280       .  A
O600        C605   1.271       .  A
O601        C604   1.263       .  A
O602        C614   1.278       .  A
O603        C616   1.254       .  A
C604        O609   1.278       .  A
C604       C1528   1.430       .  S
C605       C1504   1.512       .  S
O607        C610   1.294       .  A
O608        C610   1.272       .  A
C610       C1492   1.488       .  S
O611        C616   1.264       .  A
O612        C614   1.258       .  A
C613        O615   1.262       .  A
C613       C2704   1.493       .  S
C614       C1477   1.473       .  S
C616       C2428   1.490       .  S
Fe617       O633   2.040       .  S
Fe617       O623   2.032       .  S
Fe617       O630   2.064       .  S
Fe617       O622   2.063       .  S
Fe617       O628   1.936       .  S
Fe618       O621   2.115       .  S
Fe618       O625   2.075       .  S
Fe618       O629   2.134       .  S
Fe618       O634   2.012       .  S
Fe618       O628   1.940       .  S
Fe619       O637   2.056       .  S
Fe619       O624   2.076       .  S
Fe619       O631   2.031       .  S
Fe619       O620   2.074       .  S
Fe619       O628   1.935       .  S
O620        C627   1.267       .  A
O621        C635   1.284       .  A
O622        C627   1.269       .  A
O623        C626   1.268       .  A
O624        C636   1.271       .  A
O625        C638   1.262       .  A
C626        O631   1.271       .  A
C626       C1465   1.451       .  S
C627       C1453   1.492       .  S
O629        C632   1.288       .  A
O630        C632   1.273       .  A
C632       C1441   1.517       .  S
O633        C638   1.260       .  A
O634        C636   1.256       .  A
C635        O637   1.270       .  A
C635       C2557   1.497   1_655  S
C636       C1429   1.441       .  S
C638       C2308   1.485       .  S
Fe639       O655   2.062       .  S
Fe639       O645   2.033       .  S
Fe639       O652   2.087       .  S
Fe639       O644   2.063       .  S
Fe639       O650   1.927       .  S
Fe640       O643   2.117       .  S
Fe640       O647   2.071       .  S
Fe640       O651   2.125       .  S
Fe640       O656   2.018       .  S
Fe640       O650   1.933       .  S
Fe641       O659   2.074       .  S
Fe641       O646   2.095       .  S
Fe641       O653   2.033       .  S
Fe641       O642   2.106       .  S
Fe641       O650   1.933       .  S
O642        C649   1.276       .  A
O643        C657   1.286       .  A
O644        C649   1.271       .  A
O645        C648   1.267       .  A
O646        C658   1.278       .  A
O647        C660   1.261       .  A
C648        O653   1.270       .  A
C648       C1468   1.454       .  S
C649       C1417   1.510       .  S
O651        C654   1.288       .  A
O652        C654   1.279       .  A
C654       C1501   1.521       .  S
O655        C660   1.261       .  A
O656        C658   1.257       .  A
C657        O659   1.273       .  A
C657       C1780   1.495   1_455  S
C658       C1405   1.453       .  S
C660       C1909   1.485       .  S
Fe661       O677   2.060       .  S
Fe661       O667   2.028       .  S
Fe661       O674   2.046       .  S
Fe661       O666   2.065       .  S
Fe661       O672   1.951       .  S
Fe662       O665   2.113       .  S
Fe662       O669   2.031       .  S
Fe662       O673   2.141       .  S
Fe662       O678   1.980       .  S
Fe662       O672   1.940       .  S
Fe663       O681   2.060       .  S
Fe663       O668   2.069       .  S
Fe663       O675   2.020       .  S
Fe663       O664   2.092       .  S
Fe663       O672   1.957       .  S
O664        C671   1.272       .  A
O665        C679   1.283       .  A
O666        C671   1.265       .  A
O667        C670   1.269       .  A
O668        C680   1.265       .  A
O669        C682   1.250       .  A
C670        O675   1.270       .  A
C670       C1393   1.428       .  S
C671       C1489   1.509       .  S
O673        C676   1.295       .  A
O674        C676   1.279       .  A
C676       C1420   1.505       .  S
O677        C682   1.259       .  A
O678        C680   1.249       .  A
C679        O681   1.273       .  A
C679       C1864   1.504       .  S
C680       C1381   1.440       .  S
C682       C2608   1.482       .  S
Fe683       O699   2.078       .  S
Fe683       O689   2.027       .  S
Fe683       O696   2.041       .  S
Fe683       O688   2.068       .  S
Fe683       O694   1.949       .  S
Fe684       O687   2.097       .  S
Fe684       O691   2.027       .  S
Fe684       O695   2.134       .  S
Fe684       O700   1.975       .  S
Fe684       O694   1.929       .  S
Fe685       O703   2.048       .  S
Fe685       O690   2.096       .  S
Fe685       O697   2.036       .  S
Fe685       O686   2.100       .  S
Fe685       O694   1.952       .  S
O686        C693   1.274       .  A
O687        C701   1.279       .  A
O688        C693   1.264       .  A
O689        C692   1.273       .  A
O690        C702   1.274       .  A
O691        C704   1.248       .  A
C692        O697   1.278       .  A
C692       C1396   1.427       .  S
C693       C1357   1.511       .  S
O695        C698   1.294       .  A
O696        C698   1.277       .  A
C698       C1369   1.482       .  S
O699        C704   1.262       .  A
O700        C702   1.250       .  A
C701        O703   1.267       .  A
C701       C2509   1.484       .  S
C702       C1345   1.458       .  S
C704       C2032   1.484       .  S
Fe705       O721   2.057       .  S
Fe705       O711   2.059       .  S
Fe705       O718   2.091       .  S
Fe705       O710   2.053       .  S
Fe705       O716   1.932       .  S
Fe706       O709   2.105       .  S
Fe706       O713   2.041       .  S
Fe706       O717   2.108       .  S
Fe706       O722   1.999       .  S
Fe706       O716   1.934       .  S
Fe707       O725   2.106       .  S
Fe707       O712   2.083       .  S
Fe707       O719   1.985       .  S
Fe707       O708   2.102       .  S
Fe707       O716   1.932       .  S
O708        C715   1.277       .  A
O709        C723   1.288       .  A
O710        C715   1.266       .  A
O711        C714   1.274       .  A
O712        C724   1.268       .  A
O713        C726   1.252       .  A
C714        O719   1.261       .  A
C714       C1333   1.443       .  S
C715       C1321   1.494       .  S
O717        C720   1.289       .  A
O718        C720   1.285       .  A
C720       C1312   1.505       .  S
O721        C726   1.259       .  A
O722        C724   1.248       .  A
C723        O725   1.284       .  A
C723       C2344   1.503   1_565  S
C724       C1297   1.444       .  S
C726       C2077   1.464       .  S
Fe727       O743   2.087       .  S
Fe727       O733   2.019       .  S
Fe727       O740   2.028       .  S
Fe727       O732   2.101       .  S
Fe727       O738   1.942       .  S
Fe728       O731   2.160       .  S
Fe728       O735   2.047       .  S
Fe728       O739   2.138       .  S
Fe728       O744   1.991       .  S
Fe728       O738   1.930       .  S
Fe729       O747   2.016   1_545  S
Fe729       O734   2.099       .  S
Fe729       O741   2.038       .  S
Fe729       O730   2.089       .  S
Fe729       O738   1.953       .  S
O730        C737   1.279       .  A
O731        C745   1.291   1_545  A
O732        C737   1.278       .  A
O733        C736   1.258       .  A
O734        C746   1.269       .  A
O735        C748   1.259       .  A
C736        O741   1.271       .  A
C736       C1336   1.422       .  S
C737       C1273   1.512       .  S
O739        C742   1.289       .  A
O740        C742   1.267       .  A
C742       C1288   1.493       .  S
O743        C748   1.271       .  A
O744        C746   1.248       .  A
C745        O747   1.263       .  A
C745       C1648   1.509       .  S
C746       C1261   1.457       .  S
C748       C1849   1.482       .  S
Fe749       O765   2.080       .  S
Fe749       O755   2.035       .  S
Fe749       O762   2.093       .  S
Fe749       O754   2.068       .  S
Fe749       O760   1.928       .  S
Fe750       O753   2.106       .  S
Fe750       O757   2.065       .  S
Fe750       O761   2.097       .  S
Fe750       O766   2.017       .  S
Fe750       O760   1.940       .  S
Fe751       O769   2.092       .  S
Fe751       O756   2.095       .  S
Fe751       O763   2.014       .  S
Fe751       O752   2.118       .  S
Fe751       O760   1.929       .  S
O752        C759   1.282       .  A
O753        C767   1.288       .  A
O754        C759   1.271       .  A
O755        C758   1.268       .  A
O756        C768   1.275       .  A
O757        C770   1.257       .  A
C758        O763   1.266       .  A
C758       C1237   1.452       .  S
C759       C1252   1.514       .  S
O761        C764   1.285       .  A
O762        C764   1.284       .  A
C764       C1324   1.503       .  S
O765        C770   1.261       .  A
O766        C768   1.253       .  A
C767        O769   1.281       .  A
C767       C2056   1.498       .  S
C768       C1225   1.458       .  S
C770       C1660   1.487       .  S
Fe771       O787   2.065       .  S
Fe771       O777   2.026       .  S
Fe771       O784   2.077       .  S
Fe771       O776   2.072       .  S
Fe771       O782   1.928       .  S
Fe772       O775   2.088       .  S
Fe772       O779   2.066       .  S
Fe772       O783   2.083       .  S
Fe772       O788   2.022       .  S
Fe772       O782   1.938       .  S
Fe773       O791   2.083       .  S
Fe773       O778   2.112       .  S
Fe773       O785   2.025       .  S
Fe773       O774   2.100       .  S
Fe773       O782   1.924       .  S
O774        C781   1.276       .  A
O775        C789   1.284       .  A
O776        C781   1.272       .  A
O777        C780   1.268       .  A
O778        C790   1.277       .  A
O779        C792   1.259       .  A
C780        O785   1.270       .  A
C780       C1240   1.426       .  S
C781       C1576   1.515       .  S
O783        C786   1.279       .  A
O784        C786   1.277       .  A
C786       C1213   1.478       .  S
O787        C792   1.263       .  A
O788        C790   1.250       .  A
C789        O791   1.279       .  A
C789       C2224   1.484       .  S
C790       C1201   1.456       .  S
C792       C2668   1.482       .  S
Fe793       O809   2.068       .  S
Fe793       O799   2.045       .  S
Fe793       O806   2.029       .  S
Fe793       O798   2.074       .  S
Fe793       O804   1.923       .  S
Fe794       O797   2.151       .  S
Fe794       O801   2.054       .  S
Fe794       O805   2.116       .  S
Fe794       O810   2.002       .  S
Fe794       O804   1.921       .  S
Fe795       O813   2.026       .  S
Fe795       O800   2.117       .  S
Fe795       O807   2.045       .  S
Fe795       O796   2.093       .  S
Fe795       O804   1.966       .  S
O796        C803   1.284       .  A
O797        C811   1.291       .  A
O798        C803   1.276       .  A
O799        C802   1.268       .  A
O800        C812   1.267       .  A
O801        C814   1.262       .  A
C802        O807   1.264       .  A
C802       C1192   1.456       .  S
C803       C1216   1.494       .  S
O805        C808   1.285       .  A
O806        C808   1.270       .  A
C808       C1564   1.488       .  S
O809        C814   1.268       .  A
O810        C812   1.244       .  A
C811        O813   1.269       .  A
C811       C1933   1.493       .  S
C812       C1516   1.480       .  S
C814       C2128   1.480       .  S
Fe815       O831   2.101       .  S
Fe815       O821   2.022       .  S
Fe815       O828   2.032       .  S
Fe815       O820   2.087       .  S
Fe815       O826   1.933       .  S
Fe816       O819   2.165       .  S
Fe816       O823   2.054       .  S
Fe816       O827   2.135       .  S
Fe816       O832   1.997       .  S
Fe816       O826   1.919       .  S
Fe817       O835   2.006       .  S
Fe817       O822   2.148       .  S
Fe817       O829   2.068       .  S
Fe817       O818   2.088       .  S
Fe817       O826   1.957       .  S
O818        C825   1.282       .  A
O819        C833   1.291       .  A
O820        C825   1.278       .  A
O821        C824   1.260       .  A
O822        C834   1.274       .  A
O823        C836   1.263       .  A
C824        O829   1.276       .  A
C824       C1189   1.432       .  S
C825       C1180   1.496       .  S
O827        C830   1.287       .  A
O828        C830   1.263       .  A
C830       C1360   1.492       .  S
O831        C836   1.273       .  A
O832        C834   1.243       .  A
C833        O835   1.262       .  A
C833       C2776   1.499       .  S
C834       C1480   1.485       .  S
C836       C1876   1.484       .  S
Fe837       O853   2.035       .  S
Fe837       O843   2.025       .  S
Fe837       O850   2.055       .  S
Fe837       O842   2.062       .  S
Fe837       O848   1.930       .  S
Fe838       O841   2.109       .  S
Fe838       O845   2.055       .  S
Fe838       O849   2.110       .  S
Fe838       O854   2.004       .  S
Fe838       O848   1.934       .  S
Fe839       O857   2.073       .  S
Fe839       O844   2.097       .  S
Fe839       O851   2.029       .  S
Fe839       O840   2.082       .  S
Fe839       O848   1.931       .  S
O840        C847   1.269       .  A
O841        C855   1.284       .  A
O842        C847   1.268       .  A
O843        C846   1.269       .  A
O844        C856   1.275       .  A
O845        C858   1.258       .  A
C846        O851   1.272       .  A
C846       C1153   1.444       .  S
C847       C1165   1.499       .  S
O849        C852   1.285       .  A
O850        C852   1.273       .  A
C852       C1456   1.492       .  S
O853        C858   1.260       .  A
O854        C856   1.251       .  A
C855        O857   1.275       .  A
C855       C1900   1.496       .  S
C856       C1384   1.446       .  S
C858       C1792   1.479       .  S
Fe859       O875   2.060       .  S
Fe859       O865   2.023       .  S
Fe859       O872   2.077       .  S
Fe859       O864   2.074       .  S
Fe859       O870   1.940       .  S
Fe860       O863   2.114       .  S
Fe860       O867   2.067       .  S
Fe860       O871   2.111       .  S
Fe860       O876   2.018       .  S
Fe860       O870   1.944       .  S
Fe861       O879   2.061       .  S
Fe861       O866   2.076       .  S
Fe861       O873   2.029       .  S
Fe861       O862   2.089       .  S
Fe861       O870   1.942       .  S
O862        C869   1.271       .  A
O863        C877   1.282       .  A
O864        C869   1.271       .  A
O865        C868   1.267       .  A
O866        C878   1.273       .  A
O867        C880   1.258       .  A
C868        O873   1.270       .  A
C868       C1156   1.446       .  S
C869       C1285   1.507       .  S
O871        C874   1.287       .  A
O872        C874   1.279       .  A
C874       C1141   1.511       .  S
O875        C880   1.260       .  A
O876        C878   1.258       .  A
C877        O879   1.269       .  A
C877       C2464   1.498       .  S
C878       C1348   1.448       .  S
C880       C2185   1.484       .  S
Fe881       O897   2.065       .  S
Fe881       O887   2.032       .  S
Fe881       O894   2.089       .  S
Fe881       O886   2.072       .  S
Fe881       O892   1.932       .  S
Fe882       O885   2.105       .  S
Fe882       O889   2.068       .  S
Fe882       O893   2.108       .  S
Fe882       O898   2.014       .  S
Fe882       O892   1.940       .  S
Fe883       O901   2.077       .  S
Fe883       O888   2.108       .  S
Fe883       O895   2.043       .  S
Fe883       O884   2.094       .  S
Fe883       O892   1.930       .  S
O884        C891   1.273       .  A
O885        C899   1.285       .  A
O886        C891   1.272       .  A
O887        C890   1.268       .  A
O888        C900   1.276       .  A
O889        C902   1.259       .  A
C890        O895   1.274       .  A
C890       C1132   1.452       .  S
C891       C1144   1.509       .  S
O893        C896   1.285       .  A
O894        C896   1.281       .  A
C896       C1276   1.500       .  S
O897        C902   1.260       .  A
O898        C900   1.251       .  A
C899        O901   1.277       .  A
C899       C2017   1.492       .  S
C900       C1228   1.455       .  S
C902       C2368   1.480       .  S
Fe903       O919   2.070       .  S
Fe903       O909   2.019       .  S
Fe903       O916   2.018       .  S
Fe903       O908   2.078       .  S
Fe903       O914   1.947       .  S
Fe904       O907   2.128       .  S
Fe904       O911   2.026       .  S
Fe904       O915   2.164       .  S
Fe904       O920   1.973       .  S
Fe904       O914   1.925       .  S
Fe905       O923   2.026       .  S
Fe905       O910   2.099       .  S
Fe905       O917   2.076       .  S
Fe905       O906   2.082       .  S
Fe905       O914   1.932       .  S
O906        C913   1.269       .  A
O907        C921   1.282       .  A
O908        C913   1.264       .  A
O909        C912   1.270       .  A
O910        C922   1.275       .  A
O911        C924   1.248       .  A
C912        O917   1.284       .  A
C912       C1129   1.442       .  S
C913       C1372   1.491       .  S
O915        C918   1.299       .  A
O916        C918   1.274       .  A
C918       C1177   1.504       .  S
O919        C924   1.260       .  A
O920        C922   1.253       .  A
C921        O923   1.265       .  A
C921       C2284   1.495       .  S
C922       C1204   1.453       .  S
C924       C1948   1.478       .  S
Fe925       O941   2.055       .  S
Fe925       O931   2.013       .  S
Fe925       O938   2.055       .  S
Fe925       O930   2.088       .  S
Fe925       O936   1.938       .  S
Fe926       O929   2.116       .  S
Fe926       O933   2.073       .  S
Fe926       O937   2.136       .  S
Fe926       O942   2.025       .  S
Fe926       O936   1.937       .  S
Fe927       O945   2.061       .  S
Fe927       O932   2.077       .  S
Fe927       O939   2.034       .  S
Fe927       O928   2.072       .  S
Fe927       O936   1.934       .  S
O928        C935   1.267       .  A
O929        C943   1.284       .  A
O930        C935   1.273       .  A
O931        C934   1.266       .  A
O932        C944   1.272       .  A
O933        C946   1.263       .  A
C934        O939   1.273       .  A
C934       C1117   1.425       .  S
C935       C1093   1.507       .  S
O937        C940   1.289       .  A
O938        C940   1.272       .  A
C940       C1108   1.502       .  S
O941        C946   1.264       .  A
O942        C944   1.257       .  A
C943        O945   1.268       .  A
C943       C2149   1.494   1_556  S
C944       C1585   1.442       .  S
C946       C1765   1.487       .  S
Fe947       O963   2.081       .  S
Fe947       O953   2.041       .  S
Fe947       O960   2.092       .  S
Fe947       O952   2.056       .  S
Fe947       O958   1.922       .  S
Fe948       O951   2.121       .  S
Fe948       O955   2.060       .  S
Fe948       O959   2.111       .  S
Fe948       O964   1.994       .  S
Fe948       O958   1.927       .  S
Fe949       O967   2.085   1_554  S
Fe949       O954   2.087       .  S
Fe949       O961   2.001   1_554  S
Fe949       O950   2.106       .  S
Fe949       O958   1.927       .  S
O950        C957   1.277       .  A
O951        C965   1.290   1_554  A
O952        C957   1.268       .  A
O953        C956   1.272       .  A
O954        C966   1.275       .  A
O955        C968   1.258       .  A
C956        O961   1.263   1_554  A
C956       C1120   1.445   1_554  S
C957       C1309   1.495       .  S
O959        C962   1.286       .  A
O960        C962   1.283       .  A
C962       C1249   1.521       .  S
O963        C968   1.262       .  A
O964        C966   1.251       .  A
C965        O967   1.278       .  A
C965       C1756   1.501       .  S
C966       C1549   1.446       .  S
C968       C2248   1.497       .  S
Fe969       O985   2.057       .  S
Fe969       O975   2.012       .  S
Fe969       O982   2.058       .  S
Fe969       O974   2.085       .  S
Fe969       O980   1.937       .  S
Fe970       O973   2.121       .  S
Fe970       O977   2.078       .  S
Fe970       O981   2.128       .  S
Fe970       O986   2.020       .  S
Fe970       O980   1.934       .  S
Fe971       O989   2.071       .  S
Fe971       O976   2.069       .  S
Fe971       O983   2.023       .  S
Fe971       O972   2.078       .  S
Fe971       O980   1.924       .  S
O972        C979   1.270       .  A
O973        C987   1.287       .  A
O974        C979   1.276       .  A
O975        C978   1.263       .  A
O976        C988   1.270       .  A
O977        C990   1.265       .  A
C978        O983   1.269       .  A
C978       C1081   1.425       .  S
C979       C1072   1.505       .  S
O981        C984   1.285       .  A
O982        C984   1.270       .  A
C984       C1096   1.506       .  S
O985        C990   1.265       .  A
O986        C988   1.257       .  A
C987        O989   1.273       .  A
C987       C2389   1.500   1_565  S
C988       C1300   1.438       .  S
C990       C1696   1.489       .  S
Fe991      O1007   2.074       .  S
Fe991       O997   2.024       .  S
Fe991      O1004   2.080       .  S
Fe991       O996   2.070       .  S
Fe991      O1002   1.932       .  S
Fe992       O995   2.126       .  S
Fe992       O999   2.061       .  S
Fe992      O1003   2.092       .  S
Fe992      O1008   2.008       .  S
Fe992      O1002   1.932       .  S
Fe993      O1011   2.072   1_545  S
Fe993       O998   2.081       .  S
Fe993      O1005   2.001       .  S
Fe993       O994   2.113       .  S
Fe993      O1002   1.941       .  S
O994       C1001   1.280       .  A
O995       C1009   1.289   1_545  A
O996       C1001   1.274       .  A
O997       C1000   1.265       .  A
O998       C1010   1.276       .  A
O999       C1012   1.256       .  A
C1000      O1005   1.262       .  A
C1000      C1084   1.443   1_545  S
C1001      C1444   1.511       .  S
O1003      C1006   1.284       .  A
O1004      C1006   1.279       .  A
C1006      C1168   1.495       .  S
O1007      C1012   1.261       .  A
O1008      C1010   1.257       .  A
C1009      O1011   1.274       .  A
C1009      C1684   1.501       .  S
C1010      C1264   1.475       .  S
C1012      C2488   1.483       .  S
Fe1013     O1029   2.063       .  S
Fe1013     O1019   2.025       .  S
Fe1013     O1026   2.064       .  S
Fe1013     O1018   2.061       .  S
Fe1013     O1024   1.927       .  S
Fe1014     O1017   2.137       .  S
Fe1014     O1021   2.054       .  S
Fe1014     O1025   2.119       .  S
Fe1014     O1030   1.998       .  S
Fe1014     O1024   1.921       .  S
Fe1015     O1033   2.067       .  S
Fe1015     O1020   2.091       .  S
Fe1015     O1027   2.027       .  S
Fe1015     O1016   2.106       .  S
Fe1015     O1024   1.934       .  S
O1016      C1023   1.275       .  A
O1017      C1031   1.288       .  A
O1018      C1023   1.271       .  A
O1019      C1022   1.266       .  A
O1020      C1032   1.280       .  A
O1021      C1034   1.259       .  A
C1022      O1027   1.268       .  A
C1022      C1057   1.449       .  S
C1023      C1105   1.498       .  S
O1025      C1028   1.286       .  A
O1026      C1028   1.271       .  A
C1028      C1069   1.507       .  S
O1029      C1034   1.264       .  A
O1030      C1032   1.257       .  A
C1031      O1033   1.270       .  A
C1031      C2632   1.502   1_655  S
C1032      C1432   1.450       .  S
C1034      C1636   1.485       .  S
Fe1035     O1051   2.065       .  S
Fe1035     O1041   2.015       .  S
Fe1035     O1048   2.073       .  S
Fe1035     O1040   2.075       .  S
Fe1035     O1046   1.937       .  S
Fe1036     O1039   2.116       .  S
Fe1036     O1043   2.069       .  S
Fe1036     O1047   2.116       .  S
Fe1036     O1052   2.024       .  S
Fe1036     O1046   1.941       .  S
Fe1037     O1055   2.068       .  S
Fe1037     O1042   2.097       .  S
Fe1037     O1049   2.037       .  S
Fe1037     O1038   2.100       .  S
Fe1037     O1046   1.935       .  S
O1038      C1045   1.273       .  A
O1039      C1053   1.284       .  A
O1040      C1045   1.272       .  A
O1041      C1044   1.264       .  A
O1042      C1054   1.279       .  A
O1043      C1056   1.261       .  A
C1044      O1049   1.273       .  A
C1044      C1060   1.444       .  S
C1045      C1612   1.505       .  S
O1047      C1050   1.284       .  A
O1048      C1050   1.276       .  A
C1050      C1540   1.503       .  S
O1051      C1056   1.262       .  A
O1052      C1054   1.258       .  A
C1053      O1055   1.271       .  A
C1053      C1840   1.493   1_455  S
C1054      C1408   1.456       .  S
C1056      C2728   1.484       .  S
C1057      C1058   1.399   1_655  A
C1057      C1062   1.411       .  A
C1058      C1059   1.380       .  A
C1058      H1063   1.082       .  S
C1059      C1060   1.408       .  A
C1059      O1064   1.372       .  S
C1060      C1061   1.396   1_455  A
C1061      C1062   1.383       .  A
C1061      H1065   1.084       .  S
C1062      O1066   1.373       .  S
O1064      H1068   0.992       .  S
O1066      H1067   0.992       .  S
C1069      C1070   1.405       .  A
C1069      C1074   1.420       .  A
C1070      C1071   1.410       .  A
C1070      H1075   1.079       .  S
C1071      C1072   1.419       .  A
C1071      O1076   1.372       .  S
C1072      C1073   1.406       .  A
C1073      C1074   1.407       .  A
C1073      H1077   1.083       .  S
C1074      O1078   1.371       .  S
O1076      H1080   0.992       .  S
O1078      H1079   0.992       .  S
C1081      C1082   1.396       .  A
C1081      C1086   1.401       .  A
C1082      C1083   1.381   1_565  A
C1082      H1087   1.085       .  S
C1083      C1084   1.408   1_545  A
C1083      O1088   1.372       .  S
C1084      C1085   1.402       .  A
C1085      C1086   1.374       .  A
C1085      H1089   1.084       .  S
C1086      O1090   1.373       .  S
O1088      H1092   0.992       .  S
O1090      H1091   0.991       .  S
C1093      C1094   1.417       .  A
C1093      C1098   1.410       .  A
C1094      C1095   1.414       .  A
C1094      H1099   1.083       .  S
C1095      C1096   1.410       .  A
C1095      O1100   1.371       .  S
C1096      C1097   1.413       .  A
C1097      C1098   1.403       .  A
C1097      H1101   1.083       .  S
C1098      O1102   1.371       .  S
O1100      H1104   0.992       .  S
O1102      H1103   0.991       .  S
C1105      C1106   1.416       .  A
C1105      C1110   1.406       .  A
C1106      C1107   1.418       .  A
C1106      H1111   1.083       .  S
C1107      C1108   1.410       .  A
C1107      O1112   1.371       .  S
C1108      C1109   1.411       .  A
C1109      C1110   1.397       .  A
C1109      H1113   1.081       .  S
C1110      O1114   1.372       .  S
O1112      H1116   0.992       .  S
O1114      H1115   0.992       .  S
C1117      C1118   1.393       .  A
C1117      C1122   1.397       .  A
C1118      C1119   1.377       .  A
C1118      H1123   1.085       .  S
C1119      C1120   1.411       .  A
C1119      O1124   1.375       .  S
C1120      C1121   1.403       .  A
C1121      C1122   1.386       .  A
C1121      H1125   1.084   1_556  S
C1122      O1126   1.374       .  S
O1124      H1128   0.992       .  S
O1126      H1127   0.991   1_556  S
C1129      C1130   1.399       .  A
C1129      C1134   1.401       .  A
C1130      C1131   1.386       .  A
C1130      H1135   1.085       .  S
C1131      C1132   1.408       .  A
C1131      O1136   1.373       .  S
C1132      C1133   1.403       .  A
C1133      C1134   1.388       .  A
C1133      H1137   1.084       .  S
C1134      O1138   1.373       .  S
O1136      H1140   0.992       .  S
O1138      H1139   0.991       .  S
C1141      C1142   1.409       .  A
C1141      C1146   1.419       .  A
C1142      C1143   1.414       .  A
C1142      H1147   1.082       .  S
C1143      C1144   1.419       .  A
C1143      O1148   1.371       .  S
C1144      C1145   1.407       .  A
C1145      C1146   1.404       .  A
C1145      H1149   1.083       .  S
C1146      O1150   1.371       .  S
O1148      H1152   0.992       .  S
O1150      H1151   0.992       .  S
C1153      C1154   1.401       .  A
C1153      C1158   1.406       .  A
C1154      C1155   1.382       .  A
C1154      H1159   1.084       .  S
C1155      C1156   1.406       .  A
C1155      O1160   1.373       .  S
C1156      C1157   1.399       .  A
C1157      C1158   1.383       .  A
C1157      H1161   1.084       .  S
C1158      O1162   1.374       .  S
O1160      H1164   0.992       .  S
O1162      H1163   0.992       .  S
C1165      C1166   1.408       .  A
C1165      C1170   1.415       .  A
C1166      C1167   1.402       .  A
C1166      H1171   1.083       .  S
C1167      C1168   1.413       .  A
C1167      O1172   1.372       .  S
C1168      C1169   1.408       .  A
C1169      C1170   1.409       .  A
C1169      H1173   1.084       .  S
C1170      O1174   1.371       .  S
O1172      H1176   0.992       .  S
O1174      H1175   0.992       .  S
C1177      C1178   1.411       .  A
C1177      C1182   1.418       .  A
C1178      C1179   1.419       .  A
C1178      H1183   1.082       .  S
C1179      C1180   1.415       .  A
C1179      O1184   1.371       .  S
C1180      C1181   1.402       .  A
C1181      C1182   1.395       .  A
C1181      H1185   1.084       .  S
C1182      O1186   1.372       .  S
O1184      H1188   0.992       .  S
O1186      H1187   0.992       .  S
C1189      C1190   1.391       .  A
C1189      C1194   1.398       .  A
C1190      C1191   1.380       .  A
C1190      H1195   1.085       .  S
C1191      C1192   1.415       .  A
C1191      O1196   1.373       .  S
C1192      C1193   1.403       .  A
C1193      C1194   1.391       .  A
C1193      H1197   1.083       .  S
C1194      O1198   1.369       .  S
O1196      H1200   0.991       .  S
O1198      H1199   0.991       .  S
C1201      C1202   1.403       .  A
C1201      C1206   1.408       .  A
C1202      C1203   1.393       .  A
C1202      H1207   1.080       .  S
C1203      C1204   1.405       .  A
C1203      O1208   1.371       .  S
C1204      C1205   1.406       .  A
C1205      C1206   1.404       .  A
C1205      H1209   1.084       .  S
C1206      O1210   1.371       .  S
O1208      H1212   0.991       .  S
O1210      H1211   0.992       .  S
C1213      C1214   1.412       .  A
C1213      C1218   1.398       .  A
C1214      C1215   1.412       .  A
C1214      H1219   1.084       .  S
C1215      C1216   1.407       .  A
C1215      O1220   1.371       .  S
C1216      C1217   1.415       .  A
C1217      C1218   1.397       .  A
C1217      H1221   1.084       .  S
C1218      O1222   1.371       .  S
O1220      H1224   0.991       .  S
O1222      H1223   0.992       .  S
C1225      C1226   1.408       .  A
C1225      C1230   1.400       .  A
C1226      C1227   1.402   1_565  A
C1226      H1231   1.084       .  S
C1227      C1228   1.406       .  A
C1227      O1232   1.371       .  S
C1228      C1229   1.406       .  A
C1229      C1230   1.395   1_545  A
C1229      H1233   1.082       .  S
C1230      O1234   1.368       .  S
O1232      H1236   0.991       .  S
O1234      H1235   0.988       .  S
C1237      C1238   1.406       .  A
C1237      C1242   1.409       .  A
C1238      C1239   1.377       .  A
C1238      H1243   1.082       .  S
C1239      C1240   1.396       .  A
C1239      O1244   1.373       .  S
C1240      C1241   1.396       .  A
C1241      C1242   1.384       .  A
C1241      H1245   1.085       .  S
C1242      O1246   1.372       .  S
O1244      H1248   0.992       .  S
O1246      H1247   0.991       .  S
C1249      C1250   1.411       .  A
C1249      C1254   1.419       .  A
C1250      C1251   1.412       .  A
C1250      H1255   1.083       .  S
C1251      C1252   1.416       .  A
C1251      O1256   1.371       .  S
C1252      C1253   1.410       .  A
C1253      C1254   1.417       .  A
C1253      H1257   1.083       .  S
C1254      O1258   1.368       .  S
O1256      H1260   0.992       .  S
O1258      H1259   0.992       .  S
C1261      C1262   1.413       .  A
C1261      C1266   1.391       .  A
C1262      C1263   1.397       .  A
C1262      H1267   1.084       .  S
C1263      C1264   1.397       .  A
C1263      O1268   1.371       .  S
C1264      C1265   1.420       .  A
C1265      C1266   1.391       .  A
C1265      H1269   1.084       .  S
C1266      O1270   1.372       .  S
O1268      H1272   0.992       .  S
O1270      H1271   0.992       .  S
C1273      C1274   1.413       .  A
C1273      C1278   1.415       .  A
C1274      C1275   1.404       .  A
C1274      H1279   1.083       .  S
C1275      C1276   1.407       .  A
C1275      O1280   1.371       .  S
C1276      C1277   1.412       .  A
C1277      C1278   1.417       .  A
C1277      H1281   1.082       .  S
C1278      O1282   1.371       .  S
O1280      H1284   0.992       .  S
O1282      H1283   0.992       .  S
C1285      C1286   1.409       .  A
C1285      C1290   1.418       .  A
C1286      C1287   1.403       .  A
C1286      H1291   1.083       .  S
C1287      C1288   1.410       .  A
C1287      O1292   1.372       .  S
C1288      C1289   1.408       .  A
C1289      C1290   1.415       .  A
C1289      H1293   1.084       .  S
C1290      O1294   1.371       .  S
O1292      H1296   0.992       .  S
O1294      H1295   0.992       .  S
C1297      C1298   1.399   1_554  A
C1297      C1302   1.408   1_554  A
C1298      C1299   1.397       .  A
C1298      H1303   1.084   1_556  S
C1299      C1300   1.410       .  A
C1299      O1304   1.373       .  S
C1300      C1301   1.392       .  A
C1301      C1302   1.390       .  A
C1301      H1305   1.084       .  S
C1302      O1306   1.369       .  S
O1304      H1308   0.992       .  S
O1306      H1307   0.992       .  S
C1309      C1310   1.410       .  A
C1309      C1314   1.408       .  A
C1310      C1311   1.414       .  A
C1310      H1315   1.084       .  S
C1311      C1312   1.413       .  A
C1311      O1316   1.369       .  S
C1312      C1313   1.410       .  A
C1313      C1314   1.403       .  A
C1313      H1317   1.081       .  S
C1314      O1318   1.371       .  S
O1316      H1320   0.992       .  S
O1318      H1319   0.992       .  S
C1321      C1322   1.410       .  A
C1321      C1326   1.409       .  A
C1322      C1323   1.413       .  A
C1322      H1327   1.084       .  S
C1323      C1324   1.412       .  A
C1323      O1328   1.371       .  S
C1324      C1325   1.409       .  A
C1325      C1326   1.405       .  A
C1325      H1329   1.081       .  S
C1326      O1330   1.370       .  S
O1328      H1332   0.992       .  S
O1330      H1331   0.992       .  S
C1333      C1334   1.401       .  A
C1333      C1338   1.411       .  A
C1334      C1335   1.391       .  A
C1334      H1339   1.084       .  S
C1335      C1336   1.400   1_565  A
C1335      O1340   1.372       .  S
C1336      C1337   1.391       .  A
C1337      C1338   1.374   1_545  A
C1337      H1341   1.085       .  S
C1338      O1342   1.377       .  S
O1340      H1344   0.991       .  S
O1342      H1343   0.991   1_565  S
C1345      C1346   1.409       .  A
C1345      C1350   1.403       .  A
C1346      C1347   1.392       .  A
C1346      H1351   1.085       .  S
C1347      C1348   1.397       .  A
C1347      O1352   1.370       .  S
C1348      C1349   1.409       .  A
C1349      C1350   1.400       .  A
C1349      H1353   1.084       .  S
C1350      O1354   1.371       .  S
O1352      H1356   0.991       .  S
O1354      H1355   0.992       .  S
C1357      C1358   1.417       .  A
C1357      C1362   1.411       .  A
C1358      C1359   1.407       .  A
C1358      H1363   1.083       .  S
C1359      C1360   1.403       .  A
C1359      O1364   1.372       .  S
C1360      C1361   1.413       .  A
C1361      C1362   1.416       .  A
C1361      H1365   1.084       .  S
C1362      O1366   1.371       .  S
O1364      H1368   0.992       .  S
O1366      H1367   0.992       .  S
C1369      C1370   1.399       .  A
C1369      C1374   1.414       .  A
C1370      C1371   1.408       .  A
C1370      H1375   1.083       .  S
C1371      C1372   1.419       .  A
C1371      O1376   1.371       .  S
C1372      C1373   1.399       .  A
C1373      C1374   1.404       .  A
C1373      H1377   1.084       .  S
C1374      O1378   1.371       .  S
O1376      H1380   0.992       .  S
O1378      H1379   0.992       .  S
C1381      C1382   1.409       .  A
C1381      C1386   1.394       .  A
C1382      C1383   1.398   1_455  A
C1382      H1387   1.084       .  S
C1383      C1384   1.402       .  A
C1383      O1388   1.372       .  S
C1384      C1385   1.409       .  A
C1385      C1386   1.389   1_655  A
C1385      H1389   1.081       .  S
C1386      O1390   1.371       .  S
O1388      H1392   0.992       .  S
O1390      H1391   0.992       .  S
C1393      C1394   1.401       .  A
C1393      C1398   1.403       .  A
C1394      C1395   1.394       .  A
C1394      H1399   1.084       .  S
C1395      C1396   1.402       .  A
C1395      O1400   1.371       .  S
C1396      C1397   1.394       .  A
C1397      C1398   1.363       .  A
C1397      H1401   1.086       .  S
C1398      O1402   1.375       .  S
O1400      H1404   0.992       .  S
O1402      H1403   0.992       .  S
C1405      C1406   1.399       .  A
C1405      C1410   1.409       .  A
C1406      C1407   1.394       .  A
C1406      H1411   1.081       .  S
C1407      C1408   1.402       .  A
C1407      O1412   1.369       .  S
C1408      C1409   1.407       .  A
C1409      C1410   1.405       .  A
C1409      H1413   1.084   1_455  S
C1410      O1414   1.371   1_455  S
O1412      H1416   0.989       .  S
O1414      H1415   0.991       .  S
C1417      C1418   1.415       .  A
C1417      C1422   1.415       .  A
C1418      C1419   1.417       .  A
C1418      H1423   1.083       .  S
C1419      C1420   1.413       .  A
C1419      O1424   1.370       .  S
C1420      C1421   1.408       .  A
C1421      C1422   1.400       .  A
C1421      H1425   1.084       .  S
C1422      O1426   1.371       .  S
O1424      H1428   0.992       .  S
O1426      H1427   0.992       .  S
C1429      C1430   1.394       .  A
C1429      C1434   1.411       .  A
C1430      C1431   1.392   1_545  A
C1430      H1435   1.084       .  S
C1431      C1432   1.412       .  A
C1431      O1436   1.371       .  S
C1432      C1433   1.401       .  A
C1433      C1434   1.400   1_565  A
C1433      H1437   1.084       .  S
C1434      O1438   1.371   1_655  S
O1436      H1440   0.992       .  S
O1438      H1439   0.991       .  S
C1441      C1442   1.411       .  A
C1441      C1446   1.423       .  A
C1442      C1443   1.420       .  A
C1442      H1447   1.082       .  S
C1443      C1444   1.419       .  A
C1443      O1448   1.371       .  S
C1444      C1445   1.404       .  A
C1445      C1446   1.403       .  A
C1445      H1449   1.084       .  S
C1446      O1450   1.372       .  S
O1448      H1452   0.992       .  S
O1450      H1451   0.992       .  S
C1453      C1454   1.405       .  A
C1453      C1458   1.413       .  A
C1454      C1455   1.398       .  A
C1454      H1459   1.084       .  S
C1455      C1456   1.413       .  A
C1455      O1460   1.372       .  S
C1456      C1457   1.408       .  A
C1457      C1458   1.409       .  A
C1457      H1461   1.080       .  S
C1458      O1462   1.371       .  S
O1460      H1464   0.992       .  S
O1462      H1463   0.992       .  S
C1465      C1466   1.401   1_655  A
C1465      C1470   1.406       .  A
C1466      C1467   1.385       .  A
C1466      H1471   1.084       .  S
C1467      C1468   1.408       .  A
C1467      O1472   1.373       .  S
C1468      C1469   1.401   1_455  A
C1469      C1470   1.383       .  A
C1469      H1473   1.081       .  S
C1470      O1474   1.372       .  S
O1472      H1476   0.992       .  S
O1474      H1475   0.992       .  S
C1477      C1478   1.391       .  A
C1477      C1482   1.421       .  A
C1478      C1479   1.401       .  A
C1478      H1483   1.084       .  S
C1479      C1480   1.423       .  A
C1479      O1484   1.373       .  S
C1480      C1481   1.395       .  A
C1481      C1482   1.406       .  A
C1481      H1485   1.083       .  S
C1482      O1486   1.374       .  S
O1484      H1488   0.992       .  S
O1486      H1487   0.992       .  S
C1489      C1490   1.409       .  A
C1489      C1494   1.423       .  A
C1490      C1491   1.415       .  A
C1490      H1495   1.083       .  S
C1491      C1492   1.414       .  A
C1491      O1496   1.372       .  S
C1492      C1493   1.399       .  A
C1493      C1494   1.403       .  A
C1493      H1497   1.084       .  S
C1494      O1498   1.372       .  S
O1496      H1500   0.992       .  S
O1498      H1499   0.992       .  S
C1501      C1502   1.412       .  A
C1501      C1506   1.422       .  A
C1502      C1503   1.418       .  A
C1502      H1507   1.080       .  S
C1503      C1504   1.416       .  A
C1503      O1508   1.370       .  S
C1504      C1505   1.406       .  A
C1505      C1506   1.409       .  A
C1505      H1509   1.083       .  S
C1506      O1510   1.371       .  S
O1508      H1512   0.992       .  S
O1510      H1511   0.991       .  S
C1513      C1514   1.412       .  A
C1513      C1518   1.397       .  A
C1514      C1515   1.402       .  A
C1514      H1519   1.084       .  S
C1515      C1516   1.403   1_556  A
C1515      O1520   1.371   1_556  S
C1516      C1517   1.413   1_554  A
C1517      C1518   1.395       .  A
C1517      H1521   1.084       .  S
C1518      O1522   1.371       .  S
O1520      H1524   0.992       .  S
O1522      H1523   0.992       .  S
C1525      C1526   1.402       .  A
C1525      C1530   1.413       .  A
C1526      C1527   1.388       .  A
C1526      H1531   1.084       .  S
C1527      C1528   1.400       .  A
C1527      O1532   1.373       .  S
C1528      C1529   1.390       .  A
C1529      C1530   1.383       .  A
C1529      H1533   1.085       .  S
C1530      O1534   1.376       .  S
O1532      H1536   0.992       .  S
O1534      H1535   0.992       .  S
C1537      C1538   1.411       .  A
C1537      C1542   1.406       .  A
C1538      C1539   1.416       .  A
C1538      H1543   1.084       .  S
C1539      C1540   1.411       .  A
C1539      O1544   1.370       .  S
C1540      C1541   1.410       .  A
C1541      C1542   1.402       .  A
C1541      H1545   1.081       .  S
C1542      O1546   1.372       .  S
O1544      H1548   0.992       .  S
O1546      H1547   0.992       .  S
C1549      C1550   1.395       .  A
C1549      C1554   1.416       .  A
C1550      C1551   1.393   1_554  A
C1550      H1555   1.084   1_554  S
C1551      C1552   1.413   1_556  A
C1551      O1556   1.372       .  S
C1552      C1553   1.389       .  A
C1553      C1554   1.388       .  A
C1553      H1557   1.084       .  S
C1554      O1558   1.373       .  S
O1556      H1560   0.992       .  S
O1558      H1559   0.992       .  S
C1561      C1562   1.411       .  A
C1561      C1566   1.413       .  A
C1562      C1563   1.406       .  A
C1562      H1567   1.083       .  S
C1563      C1564   1.410       .  A
C1563      O1568   1.371       .  S
C1564      C1565   1.406       .  A
C1565      C1566   1.399       .  A
C1565      H1569   1.084       .  S
C1566      O1570   1.372       .  S
O1568      H1572   0.992       .  S
O1570      H1571   0.992       .  S
C1573      C1574   1.412       .  A
C1573      C1578   1.415       .  A
C1574      C1575   1.408       .  A
C1574      H1579   1.083       .  S
C1575      C1576   1.416       .  A
C1575      O1580   1.371       .  S
C1576      C1577   1.415       .  A
C1577      C1578   1.416       .  A
C1577      H1581   1.083       .  S
C1578      O1582   1.371       .  S
O1580      H1584   0.992       .  S
O1582      H1583   0.992       .  S
C1585      C1586   1.407       .  A
C1585      C1590   1.398       .  A
C1586      C1587   1.398   1_655  A
C1586      H1591   1.084       .  S
C1587      C1588   1.405       .  A
C1587      O1592   1.372       .  S
C1588      C1589   1.407   1_455  A
C1589      C1590   1.391       .  A
C1589      H1593   1.085   1_655  S
C1590      O1594   1.370       .  S
O1592      H1596   0.992       .  S
O1594      H1595   0.991       .  S
C1597      C1598   1.412       .  A
C1597      C1602   1.414       .  A
C1598      C1599   1.396       .  A
C1598      H1603   1.083       .  S
C1599      C1600   1.403       .  A
C1599      O1604   1.372       .  S
C1600      C1601   1.408       .  A
C1601      C1602   1.412       .  A
C1601      H1605   1.084       .  S
C1602      O1606   1.371       .  S
O1604      H1608   0.992       .  S
O1606      H1607   0.992       .  S
C1609      C1610   1.416       .  A
C1609      C1614   1.413       .  A
C1610      C1611   1.402       .  A
C1610      H1615   1.083       .  S
C1611      C1612   1.405       .  A
C1611      O1616   1.370       .  S
C1612      C1613   1.416       .  A
C1613      C1614   1.419       .  A
C1613      H1617   1.083       .  S
C1614      O1618   1.371       .  S
O1616      H1620   0.992       .  S
O1618      H1619   0.992       .  S
C1621      C1622   1.402       .  A
C1621      C1626   1.405       .  A
C1622      C1623   1.392       .  A
C1622      H1627   1.084       .  S
C1623      C1624   1.399   1_556  A
C1623      O1628   1.371   1_556  S
C1624      C1625   1.391   1_554  A
C1625      C1626   1.372       .  A
C1625      H1629   1.086   1_556  S
C1626      O1630   1.374       .  S
O1628      H1632   0.992       .  S
O1630      H1631   0.992       .  S
C1633      C1634   1.407       .  A
C1633      C1638   1.403       .  A
C1634      C1635   1.391       .  A
C1634      H1639   1.084       .  S
C1635      C1636   1.407       .  A
C1635      O1640   1.372       .  S
C1636      C1637   1.414       .  A
C1637      C1638   1.406       .  A
C1637      H1641   1.083       .  S
C1638      O1642   1.371       .  S
O1640      H1644   0.992       .  S
O1642      H1643   0.992       .  S
C1645      C1646   1.397       .  A
C1645      C1650   1.420       .  A
C1646      C1647   1.398       .  A
C1646      H1651   1.084       .  S
C1647      C1648   1.427       .  A
C1647      O1652   1.373       .  S
C1648      C1649   1.406       .  A
C1649      C1650   1.415       .  A
C1649      H1653   1.083       .  S
C1650      O1654   1.371       .  S
O1652      H1656   0.992       .  S
O1654      H1655   0.992       .  S
C1657      C1658   1.404       .  A
C1657      C1662   1.410       .  A
C1658      C1659   1.406       .  A
C1658      H1663   1.084       .  S
C1659      C1660   1.412       .  A
C1659      O1664   1.372       .  S
C1660      C1661   1.404       .  A
C1661      C1662   1.404       .  A
C1661      H1665   1.084       .  S
C1662      O1666   1.372       .  S
O1664      H1668   0.992       .  S
O1666      H1667   0.991       .  S
C1669      C1670   1.402       .  A
C1669      C1674   1.403       .  A
C1670      C1671   1.391       .  A
C1670      H1675   1.084       .  S
C1671      C1672   1.402       .  A
C1671      O1676   1.372       .  S
C1672      C1673   1.402       .  A
C1673      C1674   1.391       .  A
C1673      H1677   1.084       .  S
C1674      O1678   1.372       .  S
O1676      H1680   0.992       .  S
O1678      H1679   0.992       .  S
C1681      C1682   1.417       .  A
C1681      C1686   1.411       .  A
C1682      C1683   1.418       .  A
C1682      H1687   1.083       .  S
C1683      C1684   1.410       .  A
C1683      O1688   1.370       .  S
C1684      C1685   1.410       .  A
C1685      C1686   1.395       .  A
C1685      H1689   1.084       .  S
C1686      O1690   1.372       .  S
O1688      H1692   0.992       .  S
O1690      H1691   0.992       .  S
C1693      C1694   1.405       .  A
C1693      C1698   1.411       .  A
C1694      C1695   1.412       .  A
C1694      H1699   1.083       .  S
C1695      C1696   1.415       .  A
C1695      O1700   1.371       .  S
C1696      C1697   1.403       .  A
C1697      C1698   1.394       .  A
C1697      H1701   1.084       .  S
C1698      O1702   1.374       .  S
O1700      H1704   0.992       .  S
O1702      H1703   0.992       .  S
C1705      C1706   1.415       .  A
C1705      C1710   1.405       .  A
C1706      C1707   1.408       .  A
C1706      H1711   1.083       .  S
C1707      C1708   1.404       .  A
C1707      O1712   1.371       .  S
C1708      C1709   1.410       .  A
C1709      C1710   1.398       .  A
C1709      H1713   1.084       .  S
C1710      O1714   1.372       .  S
O1712      H1716   0.992       .  S
O1714      H1715   0.992       .  S
C1717      C1718   1.412       .  A
C1717      C1722   1.410       .  A
C1718      C1719   1.392       .  A
C1718      H1723   1.082       .  S
C1719      C1720   1.406       .  A
C1719      O1724   1.373       .  S
C1720      C1721   1.414       .  A
C1721      C1722   1.413       .  A
C1721      H1725   1.083       .  S
C1722      O1726   1.371       .  S
O1724      H1728   0.992       .  S
O1726      H1727   0.992       .  S
C1729      C1730   1.398       .  A
C1729      C1734   1.417       .  A
C1730      C1731   1.406       .  A
C1730      H1735   1.084       .  S
C1731      C1732   1.422       .  A
C1731      O1736   1.372       .  S
C1732      C1733   1.404       .  A
C1733      C1734   1.414       .  A
C1733      H1737   1.083       .  S
C1734      O1738   1.371       .  S
O1736      H1740   0.992       .  S
O1738      H1739   0.992       .  S
C1741      C1742   1.397       .  A
C1741      C1746   1.402       .  A
C1742      C1743   1.390       .  A
C1742      H1747   1.084       .  S
C1743      C1744   1.406       .  A
C1743      O1748   1.374       .  S
C1744      C1745   1.397       .  A
C1745      C1746   1.386       .  A
C1745      H1749   1.084       .  S
C1746      O1750   1.370       .  S
O1748      H1752   0.992       .  S
O1750      H1751   0.992       .  S
C1753      C1754   1.418       .  A
C1753      C1758   1.411       .  A
C1754      C1755   1.416       .  A
C1754      H1759   1.083       .  S
C1755      C1756   1.408       .  A
C1755      O1760   1.370       .  S
C1756      C1757   1.409       .  A
C1757      C1758   1.401       .  A
C1757      H1761   1.082       .  S
C1758      O1762   1.372       .  S
O1760      H1764   0.992       .  S
O1762      H1763   0.992       .  S
C1765      C1766   1.396       .  A
C1765      C1770   1.415       .  A
C1766      C1767   1.396       .  A
C1766      H1771   1.084       .  S
C1767      C1768   1.423       .  A
C1767      O1772   1.375       .  S
C1768      C1769   1.407       .  A
C1769      C1770   1.413       .  A
C1769      H1773   1.083       .  S
C1770      O1774   1.371       .  S
O1772      H1776   0.991       .  S
O1774      H1775   0.992       .  S
C1777      C1778   1.416       .  A
C1777      C1782   1.409       .  A
C1778      C1779   1.415       .  A
C1778      H1783   1.083       .  S
C1779      C1780   1.408       .  A
C1779      O1784   1.371       .  S
C1780      C1781   1.409       .  A
C1781      C1782   1.398       .  A
C1781      H1785   1.083       .  S
C1782      O1786   1.372       .  S
O1784      H1788   0.992       .  S
O1786      H1787   0.992       .  S
C1789      C1790   1.404       .  A
C1789      C1794   1.418       .  A
C1790      C1791   1.407       .  A
C1790      H1795   1.083       .  S
C1791      C1792   1.416       .  A
C1791      O1796   1.371       .  S
C1792      C1793   1.398       .  A
C1793      C1794   1.383       .  A
C1793      H1797   1.084       .  S
C1794      O1798   1.374       .  S
O1796      H1800   0.992       .  S
O1798      H1799   0.993       .  S
C1801      C1802   1.409       .  A
C1801      C1806   1.413       .  A
C1802      C1803   1.395       .  A
C1802      H1807   1.083       .  S
C1803      C1804   1.408       .  A
C1803      O1808   1.373       .  S
C1804      C1805   1.412       .  A
C1805      C1806   1.417       .  A
C1805      H1809   1.084       .  S
C1806      O1810   1.371       .  S
O1808      H1812   0.992       .  S
O1810      H1811   0.992       .  S
C1813      C1814   1.407       .  A
C1813      C1818   1.420       .  A
C1814      C1815   1.409       .  A
C1814      H1819   1.083       .  S
C1815      C1816   1.413       .  A
C1815      O1820   1.371       .  S
C1816      C1817   1.400       .  A
C1817      C1818   1.406       .  A
C1817      H1821   1.084       .  S
C1818      O1822   1.372       .  S
O1820      H1824   0.991       .  S
O1822      H1823   0.992       .  S
C1825      C1826   1.404       .  A
C1825      C1830   1.407       .  A
C1826      C1827   1.387       .  A
C1826      H1831   1.084       .  S
C1827      C1828   1.401       .  A
C1827      O1832   1.372       .  S
C1828      C1829   1.398       .  A
C1829      C1830   1.392       .  A
C1829      H1833   1.083       .  S
C1830      O1834   1.372       .  S
O1832      H1836   0.991       .  S
O1834      H1835   0.992       .  S
C1837      C1838   1.416       .  A
C1837      C1842   1.409       .  A
C1838      C1839   1.413       .  A
C1838      H1843   1.083       .  S
C1839      C1840   1.407       .  A
C1839      O1844   1.371       .  S
C1840      C1841   1.409       .  A
C1841      C1842   1.402       .  A
C1841      H1845   1.084       .  S
C1842      O1846   1.372       .  S
O1844      H1848   0.992       .  S
O1846      H1847   0.992       .  S
C1849      C1850   1.401       .  A
C1849      C1854   1.412       .  A
C1850      C1851   1.398       .  A
C1850      H1855   1.084       .  S
C1851      C1852   1.411       .  A
C1851      O1856   1.373       .  S
C1852      C1853   1.404       .  A
C1853      C1854   1.411       .  A
C1853      H1857   1.083       .  S
C1854      O1858   1.371       .  S
O1856      H1860   0.992       .  S
O1858      H1859   0.992       .  S
C1861      C1862   1.414       .  A
C1861      C1866   1.409       .  A
C1862      C1863   1.415       .  A
C1862      H1867   1.083       .  S
C1863      C1864   1.412       .  A
C1863      O1868   1.371       .  S
C1864      C1865   1.412       .  A
C1865      C1866   1.395       .  A
C1865      H1869   1.083       .  S
C1866      O1870   1.372       .  S
O1868      H1872   0.992       .  S
O1870      H1871   0.992       .  S
C1873      C1874   1.402       .  A
C1873      C1878   1.414       .  A
C1874      C1875   1.407       .  A
C1874      H1879   1.084       .  S
C1875      C1876   1.413       .  A
C1875      O1880   1.372       .  S
C1876      C1877   1.400       .  A
C1877      C1878   1.406       .  A
C1877      H1881   1.083       .  S
C1878      O1882   1.371       .  S
O1880      H1884   0.991       .  S
O1882      H1883   0.992       .  S
C1885      C1886   1.398       .  A
C1885      C1890   1.408   1_655  A
C1886      C1887   1.391       .  A
C1886      H1891   1.084       .  S
C1887      C1888   1.404   1_655  A
C1887      O1892   1.373       .  S
C1888      C1889   1.392       .  A
C1889      C1890   1.384       .  A
C1889      H1893   1.085       .  S
C1890      O1894   1.372       .  S
O1892      H1896   0.992       .  S
O1894      H1895   0.992       .  S
C1897      C1898   1.411       .  A
C1897      C1902   1.405       .  A
C1898      C1899   1.417       .  A
C1898      H1903   1.083       .  S
C1899      C1900   1.412       .  A
C1899      O1904   1.370       .  S
C1900      C1901   1.409       .  A
C1901      C1902   1.392       .  A
C1901      H1905   1.084       .  S
C1902      O1906   1.372       .  S
O1904      H1908   0.992       .  S
O1906      H1907   0.992       .  S
C1909      C1910   1.407       .  A
C1909      C1914   1.409       .  A
C1910      C1911   1.400       .  A
C1910      H1915   1.084       .  S
C1911      C1912   1.406       .  A
C1911      O1916   1.372       .  S
C1912      C1913   1.407       .  A
C1913      C1914   1.407       .  A
C1913      H1917   1.083       .  S
C1914      O1918   1.371       .  S
O1916      H1920   0.992       .  S
O1918      H1919   0.992       .  S
C1921      C1922   1.397       .  A
C1921      C1926   1.413       .  A
C1922      C1923   1.401       .  A
C1922      H1927   1.084       .  S
C1923      C1924   1.425       .  A
C1923      O1928   1.372       .  S
C1924      C1925   1.411       .  A
C1925      C1926   1.416       .  A
C1925      H1929   1.083       .  S
C1926      O1930   1.371       .  S
O1928      H1932   0.992       .  S
O1930      H1931   0.991       .  S
C1933      C1934   1.404       .  A
C1933      C1938   1.417       .  A
C1934      C1935   1.412       .  A
C1934      H1939   1.083       .  S
C1935      C1936   1.416       .  A
C1935      O1940   1.371       .  S
C1936      C1937   1.394       .  A
C1937      C1938   1.396       .  A
C1937      H1941   1.084       .  S
C1938      O1942   1.368       .  S
O1940      H1944   0.992       .  S
O1942      H1943   0.992       .  S
C1945      C1946   1.412       .  A
C1945      C1950   1.405       .  A
C1946      C1947   1.390       .  A
C1946      H1951   1.083       .  S
C1947      C1948   1.402       .  A
C1947      O1952   1.372       .  S
C1948      C1949   1.413       .  A
C1949      C1950   1.403       .  A
C1949      H1953   1.083       .  S
C1950      O1954   1.371       .  S
O1952      H1956   0.992       .  S
O1954      H1955   0.992       .  S
C1957      C1958   1.399       .  A
C1957      C1962   1.402       .  A
C1958      C1959   1.389   1_556  A
C1958      H1963   1.082       .  S
C1959      C1960   1.404   1_554  A
C1959      O1964   1.373       .  S
C1960      C1961   1.401       .  A
C1961      C1962   1.389       .  A
C1961      H1965   1.084       .  S
C1962      O1966   1.372       .  S
O1964      H1968   0.992       .  S
O1966      H1967   0.992       .  S
C1969      C1970   1.404       .  A
C1969      C1974   1.403       .  A
C1970      C1971   1.402       .  A
C1970      H1975   1.080       .  S
C1971      C1972   1.403       .  A
C1971      O1976   1.371       .  S
C1972      C1973   1.409       .  A
C1973      C1974   1.403       .  A
C1973      H1977   1.084       .  S
C1974      O1978   1.371       .  S
O1976      H1980   0.992       .  S
O1978      H1979   0.992       .  S
C1981      C1982   1.402       .  A
C1981      C1986   1.411       .  A
C1982      C1983   1.413       .  A
C1982      H1987   1.083       .  S
C1983      C1984   1.419       .  A
C1983      O1988   1.371       .  S
C1984      C1985   1.403       .  A
C1985      C1986   1.392       .  A
C1985      H1989   1.083       .  S
C1986      O1990   1.374       .  S
O1988      H1992   0.992       .  S
O1990      H1991   0.992       .  S
C1993      C1994   1.413       .  A
C1993      C1998   1.404       .  A
C1994      C1995   1.408       .  A
C1994      H1999   1.084       .  S
C1995      C1996   1.404       .  A
C1995      O2000   1.371       .  S
C1996      C1997   1.412       .  A
C1997      C1998   1.406       .  A
C1997      H2001   1.084       .  S
C1998      O2002   1.372       .  S
O2000      H2004   0.992       .  S
O2002      H2003   0.992       .  S
C2005      C2006   1.412       .  A
C2005      C2010   1.402       .  A
C2006      C2007   1.407       .  A
C2006      H2011   1.083       .  S
C2007      C2008   1.403       .  A
C2007      O2012   1.371       .  S
C2008      C2009   1.412       .  A
C2009      C2010   1.403       .  A
C2009      H2013   1.084       .  S
C2010      O2014   1.371       .  S
O2012      H2016   0.992       .  S
O2014      H2015   0.992       .  S
C2017      C2018   1.408       .  A
C2017      C2022   1.416       .  A
C2018      C2019   1.414       .  A
C2018      H2023   1.083       .  S
C2019      C2020   1.412       .  A
C2019      O2024   1.371       .  S
C2020      C2021   1.397       .  A
C2021      C2022   1.394       .  A
C2021      H2025   1.084       .  S
C2022      O2026   1.373       .  S
O2024      H2028   0.992       .  S
O2026      H2027   0.992       .  S
C2029      C2030   1.407       .  A
C2029      C2034   1.404       .  A
C2030      C2031   1.395       .  A
C2030      H2035   1.085       .  S
C2031      C2032   1.406       .  A
C2031      O2036   1.372       .  S
C2032      C2033   1.413       .  A
C2033      C2034   1.408       .  A
C2033      H2037   1.083       .  S
C2034      O2038   1.371   1_545  S
O2036      H2040   0.992       .  S
O2038      H2039   0.992       .  S
C2041      C2042   1.402   1_545  A
C2041      C2046   1.400       .  A
C2042      C2043   1.392       .  A
C2042      H2047   1.084       .  S
C2043      C2044   1.401       .  A
C2043      O2048   1.371       .  S
C2044      C2045   1.403       .  A
C2045      C2046   1.392   1_565  A
C2045      H2049   1.084   1_565  S
C2046      O2050   1.373       .  S
O2048      H2052   0.991       .  S
O2050      H2051   0.992       .  S
C2053      C2054   1.402       .  A
C2053      C2058   1.421       .  A
C2054      C2055   1.398       .  A
C2054      H2059   1.083       .  S
C2055      C2056   1.415       .  A
C2055      O2060   1.370       .  S
C2056      C2057   1.405       .  A
C2057      C2058   1.415       .  A
C2057      H2061   1.083       .  S
C2058      O2062   1.371       .  S
O2060      H2064   0.992       .  S
O2062      H2063   0.992       .  S
C2065      C2066   1.415       .  A
C2065      C2070   1.396       .  A
C2066      C2067   1.405   1_565  A
C2066      H2071   1.084   1_455  S
C2067      C2068   1.402       .  A
C2067      O2072   1.371       .  S
C2068      C2069   1.417   1_545  A
C2069      C2070   1.397       .  A
C2069      H2073   1.084   1_565  S
C2070      O2074   1.371       .  S
O2072      H2076   0.992       .  S
O2074      H2075   0.991       .  S
C2077      C2078   1.408       .  A
C2077      C2082   1.397       .  A
C2078      C2079   1.405       .  A
C2078      H2083   1.084       .  S
C2079      C2080   1.407       .  A
C2079      O2084   1.371       .  S
C2080      C2081   1.411       .  A
C2081      C2082   1.390       .  A
C2081      H2085   1.083       .  S
C2082      O2086   1.372       .  S
O2084      H2088   0.992       .  S
O2086      H2087   0.992       .  S
C2089      C2090   1.398       .  A
C2089      C2094   1.414       .  A
C2090      C2091   1.406       .  A
C2090      H2095   1.084       .  S
C2091      C2092   1.420       .  A
C2091      O2096   1.372       .  S
C2092      C2093   1.402       .  A
C2093      C2094   1.407       .  A
C2093      H2097   1.083       .  S
C2094      O2098   1.372       .  S
O2096      H2100   0.992       .  S
O2098      H2099   0.992       .  S
C2101      C2102   1.410   1_556  A
C2101      C2106   1.420   1_556  A
C2102      C2103   1.415       .  A
C2102      H2107   1.083   1_554  S
C2103      C2104   1.414       .  A
C2103      O2108   1.371       .  S
C2104      C2105   1.399       .  A
C2105      C2106   1.395       .  A
C2105      H2109   1.084       .  S
C2106      O2110   1.373       .  S
O2108      H2112   0.992       .  S
O2110      H2111   0.992       .  S
C2113      C2114   1.392       .  A
C2113      C2118   1.418       .  A
C2114      C2115   1.399       .  A
C2114      H2119   1.084       .  S
C2115      C2116   1.423       .  A
C2115      O2120   1.373       .  S
C2116      C2117   1.397       .  A
C2117      C2118   1.405       .  A
C2117      H2121   1.083       .  S
C2118      O2122   1.373   1_655  S
O2120      H2124   0.992       .  S
O2122      H2123   0.992   1_455  S
C2125      C2126   1.408       .  A
C2125      C2130   1.408       .  A
C2126      C2127   1.388       .  A
C2126      H2131   1.080       .  S
C2127      C2128   1.404       .  A
C2127      O2132   1.372       .  S
C2128      C2129   1.412       .  A
C2129      C2130   1.410       .  A
C2129      H2133   1.083       .  S
C2130      O2134   1.371       .  S
O2132      H2136   0.992       .  S
O2134      H2135   0.992       .  S
C2137      C2138   1.402   1_655  A
C2137      C2142   1.406       .  A
C2138      C2139   1.385       .  A
C2138      H2143   1.079       .  S
C2139      C2140   1.400       .  A
C2139      O2144   1.373       .  S
C2140      C2141   1.400   1_455  A
C2141      C2142   1.393       .  A
C2141      H2145   1.083       .  S
C2142      O2146   1.372       .  S
O2144      H2148   0.992       .  S
O2146      H2147   0.992       .  S
C2149      C2150   1.402       .  A
C2149      C2154   1.419       .  A
C2150      C2151   1.411       .  A
C2150      H2155   1.083   1_554  S
C2151      C2152   1.422       .  A
C2151      O2156   1.371       .  S
C2152      C2153   1.400       .  A
C2153      C2154   1.398       .  A
C2153      H2157   1.084       .  S
C2154      O2158   1.373       .  S
O2156      H2160   0.992       .  S
O2158      H2159   0.992       .  S
C2161      C2162   1.399       .  A
C2161      C2166   1.417       .  A
C2162      C2163   1.408       .  A
C2162      H2167   1.083       .  S
C2163      C2164   1.420       .  A
C2163      O2168   1.371       .  S
C2164      C2165   1.402       .  A
C2165      C2166   1.408       .  A
C2165      H2169   1.083       .  S
C2166      O2170   1.371       .  S
O2168      H2172   0.992       .  S
O2170      H2171   0.990       .  S
C2173      C2174   1.398       .  A
C2173      C2178   1.424       .  A
C2174      C2175   1.403       .  A
C2174      H2179   1.083       .  S
C2175      C2176   1.417       .  A
C2175      O2180   1.372       .  S
C2176      C2177   1.391       .  A
C2177      C2178   1.399       .  A
C2177      H2181   1.084       .  S
C2178      O2182   1.373       .  S
O2180      H2184   0.992       .  S
O2182      H2183   0.992       .  S
C2185      C2186   1.406       .  A
C2185      C2190   1.408       .  A
C2186      C2187   1.401       .  A
C2186      H2191   1.084       .  S
C2187      C2188   1.407       .  A
C2187      O2192   1.372       .  S
C2188      C2189   1.408       .  A
C2189      C2190   1.408       .  A
C2189      H2193   1.084       .  S
C2190      O2194   1.371       .  S
O2192      H2196   0.992       .  S
O2194      H2195   0.992       .  S
C2197      C2198   1.398       .  A
C2197      C2202   1.416       .  A
C2198      C2199   1.405       .  A
C2198      H2203   1.084       .  S
C2199      C2200   1.417       .  A
C2199      O2204   1.373       .  S
C2200      C2201   1.400       .  A
C2201      C2202   1.408       .  A
C2201      H2205   1.083       .  S
C2202      O2206   1.372       .  S
O2204      H2208   0.992       .  S
O2206      H2207   0.992       .  S
C2209      C2210   1.412       .  A
C2209      C2214   1.406       .  A
C2210      C2211   1.403       .  A
C2210      H2215   1.084       .  S
C2211      C2212   1.402       .  A
C2211      O2216   1.372       .  S
C2212      C2213   1.409       .  A
C2213      C2214   1.407       .  A
C2213      H2217   1.084       .  S
C2214      O2218   1.371       .  S
O2216      H2220   0.992       .  S
O2218      H2219   0.992       .  S
C2221      C2222   1.414       .  A
C2221      C2226   1.410       .  A
C2222      C2223   1.407       .  A
C2222      H2227   1.083       .  S
C2223      C2224   1.405       .  A
C2223      O2228   1.371       .  S
C2224      C2225   1.407       .  A
C2225      C2226   1.397       .  A
C2225      H2229   1.084       .  S
C2226      O2230   1.371       .  S
O2228      H2232   0.992       .  S
O2230      H2231   0.992       .  S
C2233      C2234   1.416       .  A
C2233      C2238   1.397       .  A
C2234      C2235   1.407       .  A
C2234      H2239   1.084       .  S
C2235      C2236   1.402   1_556  A
C2235      O2240   1.371   1_556  S
C2236      C2237   1.417   1_554  A
C2237      C2238   1.398       .  A
C2237      H2241   1.084       .  S
C2238      O2242   1.371       .  S
O2240      H2244   0.992       .  S
O2242      H2243   0.991       .  S
C2245      C2246   1.404       .  A
C2245      C2250   1.406       .  A
C2246      C2247   1.404       .  A
C2246      H2251   1.084       .  S
C2247      C2248   1.414       .  A
C2247      O2252   1.372       .  S
C2248      C2249   1.411       .  A
C2249      C2250   1.406       .  A
C2249      H2253   1.083       .  S
C2250      O2254   1.371       .  S
O2252      H2256   0.992       .  S
O2254      H2255   0.992       .  S
C2257      C2258   1.407       .  A
C2257      C2262   1.425       .  A
C2258      C2259   1.412       .  A
C2258      H2263   1.083       .  S
C2259      C2260   1.414       .  A
C2259      O2264   1.371       .  S
C2260      C2261   1.395       .  A
C2261      C2262   1.399       .  A
C2261      H2265   1.084       .  S
C2262      O2266   1.372       .  S
O2264      H2268   0.992       .  S
O2266      H2267   0.992       .  S
C2269      C2270   1.400       .  A
C2269      C2274   1.408       .  A
C2270      C2271   1.392       .  A
C2270      H2275   1.084       .  S
C2271      C2272   1.403       .  A
C2271      O2276   1.373       .  S
C2272      C2273   1.396       .  A
C2273      C2274   1.388       .  A
C2273      H2277   1.085       .  S
C2274      O2278   1.372       .  S
O2276      H2280   0.992       .  S
O2278      H2279   0.991       .  S
C2281      C2282   1.413       .  A
C2281      C2286   1.409       .  A
C2282      C2283   1.418       .  A
C2282      H2287   1.083       .  S
C2283      C2284   1.412       .  A
C2283      O2288   1.370       .  S
C2284      C2285   1.407       .  A
C2285      C2286   1.391       .  A
C2285      H2289   1.084       .  S
C2286      O2290   1.372       .  S
O2288      H2292   0.992       .  S
O2290      H2291   0.992       .  S
C2293      C2294   1.416   1_554  A
C2293      C2298   1.397       .  A
C2294      C2295   1.403   1_655  A
C2294      H2299   1.084       .  S
C2295      C2296   1.400   1_556  A
C2295      O2300   1.371       .  S
C2296      C2297   1.416       .  A
C2297      C2298   1.400   1_455  A
C2297      H2301   1.084       .  S
C2298      O2302   1.371       .  S
O2300      H2304   0.992       .  S
O2302      H2303   0.992       .  S
C2305      C2306   1.412       .  A
C2305      C2310   1.410       .  A
C2306      C2307   1.386       .  A
C2306      H2311   1.082       .  S
C2307      C2308   1.402       .  A
C2307      O2312   1.374       .  S
C2308      C2309   1.414       .  A
C2309      C2310   1.417       .  A
C2309      H2313   1.083       .  S
C2310      O2314   1.370       .  S
O2312      H2316   0.992       .  S
O2314      H2315   0.992       .  S
C2317      C2318   1.414       .  A
C2317      C2322   1.411       .  A
C2318      C2319   1.426       .  A
C2318      H2323   1.083       .  S
C2319      C2320   1.420       .  A
C2319      O2324   1.370       .  S
C2320      C2321   1.412       .  A
C2321      C2322   1.401       .  A
C2321      H2325   1.083       .  S
C2322      O2326   1.374       .  S
O2324      H2328   0.991       .  S
O2326      H2327   0.992       .  S
C2329      C2330   1.412       .  A
C2329      C2334   1.413       .  A
C2330      C2331   1.417       .  A
C2330      H2335   1.083       .  S
C2331      C2332   1.414       .  A
C2331      O2336   1.371       .  S
C2332      C2333   1.407       .  A
C2333      C2334   1.399       .  A
C2333      H2337   1.084       .  S
C2334      O2338   1.373       .  S
O2336      H2340   0.992       .  S
O2338      H2339   0.992       .  S
C2341      C2342   1.403       .  A
C2341      C2346   1.420       .  A
C2342      C2343   1.402       .  A
C2342      H2347   1.084       .  S
C2343      C2344   1.415       .  A
C2343      O2348   1.370       .  S
C2344      C2345   1.407       .  A
C2345      C2346   1.417       .  A
C2345      H2349   1.083   1_545  S
C2346      O2350   1.371       .  S
O2348      H2352   0.992       .  S
O2350      H2351   0.991       .  S
C2353      C2354   1.399       .  A
C2353      C2358   1.424       .  A
C2354      C2355   1.408       .  A
C2354      H2359   1.083       .  S
C2355      C2356   1.418       .  A
C2355      O2360   1.373       .  S
C2356      C2357   1.392       .  A
C2357      C2358   1.398       .  A
C2357      H2361   1.084       .  S
C2358      O2362   1.372       .  S
O2360      H2364   0.992       .  S
O2362      H2363   0.992       .  S
C2365      C2366   1.401   1_556  A
C2365      C2370   1.413   1_556  A
C2366      C2367   1.402       .  A
C2366      H2371   1.084       .  S
C2367      C2368   1.412       .  A
C2367      O2372   1.372       .  S
C2368      C2369   1.401       .  A
C2369      C2370   1.405       .  A
C2369      H2373   1.083       .  S
C2370      O2374   1.372   1_554  S
O2372      H2376   0.992       .  S
O2374      H2375   0.991       .  S
C2377      C2378   1.396       .  A
C2377      C2382   1.407       .  A
C2378      C2379   1.392       .  A
C2378      H2383   1.084       .  S
C2379      C2380   1.404       .  A
C2379      O2384   1.370       .  S
C2380      C2381   1.397   1_556  A
C2381      C2382   1.389   1_554  A
C2381      H2385   1.084       .  S
C2382      O2386   1.373   1_556  S
O2384      H2388   0.991       .  S
O2386      H2387   0.992       .  S
C2389      C2390   1.411       .  A
C2389      C2394   1.408       .  A
C2390      C2391   1.401       .  A
C2390      H2395   1.084       .  S
C2391      C2392   1.410       .  A
C2391      O2396   1.372       .  S
C2392      C2393   1.418       .  A
C2393      C2394   1.416       .  A
C2393      H2397   1.083       .  S
C2394      O2398   1.370       .  S
O2396      H2400   0.992       .  S
O2398      H2399   0.992   1_545  S
C2401      C2402   1.414       .  A
C2401      C2406   1.418       .  A
C2402      C2403   1.401       .  A
C2402      H2407   1.083       .  S
C2403      C2404   1.408       .  A
C2403      O2408   1.372       .  S
C2404      C2405   1.414       .  A
C2405      C2406   1.424       .  A
C2405      H2409   1.083       .  S
C2406      O2410   1.370       .  S
O2408      H2412   0.992       .  S
O2410      H2411   0.992       .  S
C2413      C2414   1.417       .  A
C2413      C2418   1.398       .  A
C2414      C2415   1.404       .  A
C2414      H2419   1.084       .  S
C2415      C2416   1.399       .  A
C2415      O2420   1.371       .  S
C2416      C2417   1.416       .  A
C2417      C2418   1.400       .  A
C2417      H2421   1.084       .  S
C2418      O2422   1.371       .  S
O2420      H2424   0.992       .  S
O2422      H2423   0.991       .  S
C2425      C2426   1.410       .  A
C2425      C2430   1.409       .  A
C2426      C2427   1.410       .  A
C2426      H2431   1.083       .  S
C2427      C2428   1.406       .  A
C2427      O2432   1.371       .  S
C2428      C2429   1.408       .  A
C2429      C2430   1.409       .  A
C2429      H2433   1.084       .  S
C2430      O2434   1.372       .  S
O2432      H2436   0.992       .  S
O2434      H2435   0.992       .  S
C2437      C2438   1.415       .  A
C2437      C2442   1.408       .  A
C2438      C2439   1.405       .  A
C2438      H2443   1.084       .  S
C2439      C2440   1.401       .  A
C2439      O2444   1.371       .  S
C2440      C2441   1.410       .  A
C2441      C2442   1.411       .  A
C2441      H2445   1.084       .  S
C2442      O2446   1.371       .  S
O2444      H2448   0.992       .  S
O2446      H2447   0.992       .  S
C2449      C2450   1.409       .  A
C2449      C2454   1.411       .  A
C2450      C2451   1.416       .  A
C2450      H2455   1.083       .  S
C2451      C2452   1.417       .  A
C2451      O2456   1.371       .  S
C2452      C2453   1.409       .  A
C2453      C2454   1.401       .  A
C2453      H2457   1.083       .  S
C2454      O2458   1.373       .  S
O2456      H2460   0.992       .  S
O2458      H2459   0.992       .  S
C2461      C2462   1.397       .  A
C2461      C2466   1.413       .  A
C2462      C2463   1.394       .  A
C2462      H2467   1.084       .  S
C2463      C2464   1.419       .  A
C2463      O2468   1.374       .  S
C2464      C2465   1.409       .  A
C2465      C2466   1.416       .  A
C2465      H2469   1.083       .  S
C2466      O2470   1.371       .  S
O2468      H2472   0.992       .  S
O2470      H2471   0.992       .  S
C2473      C2474   1.403   1_545  A
C2473      C2478   1.408   1_545  A
C2474      C2475   1.391       .  A
C2474      H2479   1.082   1_565  S
C2475      C2476   1.406       .  A
C2475      O2480   1.373       .  S
C2476      C2477   1.407       .  A
C2477      C2478   1.407       .  A
C2477      H2481   1.083       .  S
C2478      O2482   1.370   1_565  S
O2480      H2484   0.991       .  S
O2482      H2483   0.992       .  S
C2485      C2486   1.403       .  A
C2485      C2490   1.408       .  A
C2486      C2487   1.407       .  A
C2486      H2491   1.084       .  S
C2487      C2488   1.412       .  A
C2487      O2492   1.371       .  S
C2488      C2489   1.403       .  A
C2489      C2490   1.398       .  A
C2489      H2493   1.084       .  S
C2490      O2494   1.371       .  S
O2492      H2496   0.992       .  S
O2494      H2495   0.992       .  S
C2497      C2498   1.401       .  A
C2497      C2502   1.407       .  A
C2498      C2499   1.385       .  A
C2498      H2503   1.084       .  S
C2499      C2500   1.399       .  A
C2499      O2504   1.372       .  S
C2500      C2501   1.398       .  A
C2501      C2502   1.391       .  A
C2501      H2505   1.084       .  S
C2502      O2506   1.373       .  S
O2504      H2508   0.991       .  S
O2506      H2507   0.992       .  S
C2509      C2510   1.399       .  A
C2509      C2514   1.418       .  A
C2510      C2511   1.404       .  A
C2510      H2515   1.083       .  S
C2511      C2512   1.420       .  A
C2511      O2516   1.372       .  S
C2512      C2513   1.398       .  A
C2513      C2514   1.398       .  A
C2513      H2517   1.084       .  S
C2514      O2518   1.372       .  S
O2516      H2520   0.992       .  S
O2518      H2519   0.992       .  S
C2521      C2522   1.410       .  A
C2521      C2526   1.416       .  A
C2522      C2523   1.397       .  A
C2522      H2527   1.083       .  S
C2523      C2524   1.407       .  A
C2523      O2528   1.372       .  S
C2524      C2525   1.408       .  A
C2525      C2526   1.414       .  A
C2525      H2529   1.084       .  S
C2526      O2530   1.371       .  S
O2528      H2532   0.992       .  S
O2530      H2531   0.992       .  S
C2533      C2534   1.414       .  A
C2533      C2538   1.397       .  A
C2534      C2535   1.402       .  A
C2534      H2539   1.084       .  S
C2535      C2536   1.398   1_556  A
C2535      O2540   1.371   1_556  S
C2536      C2537   1.414   1_554  A
C2537      C2538   1.401       .  A
C2537      H2541   1.083   1_556  S
C2538      O2542   1.371       .  S
O2540      H2544   0.991   1_545  S
O2542      H2543   0.992   1_545  S
C2545      C2546   1.411       .  A
C2545      C2550   1.395       .  A
C2546      C2547   1.408       .  A
C2546      H2551   1.084       .  S
C2547      C2548   1.406       .  A
C2547      O2552   1.371       .  S
C2548      C2549   1.416       .  A
C2549      C2550   1.391       .  A
C2549      H2553   1.083       .  S
C2550      O2554   1.372       .  S
O2552      H2556   0.992       .  S
O2554      H2555   0.992       .  S
C2557      C2558   1.409       .  A
C2557      C2562   1.420       .  A
C2558      C2559   1.416       .  A
C2558      H2563   1.083       .  S
C2559      C2560   1.414       .  A
C2559      O2564   1.371       .  S
C2560      C2561   1.395       .  A
C2561      C2562   1.390       .  A
C2561      H2565   1.085       .  S
C2562      O2566   1.373       .  S
O2564      H2568   0.992       .  S
O2566      H2567   0.991       .  S
C2569      C2570   1.411       .  A
C2569      C2574   1.413       .  A
C2570      C2571   1.413       .  A
C2570      H2575   1.083       .  S
C2571      C2572   1.412       .  A
C2571      O2576   1.371       .  S
C2572      C2573   1.406       .  A
C2573      C2574   1.397       .  A
C2573      H2577   1.084       .  S
C2574      O2578   1.372       .  S
O2576      H2580   0.992       .  S
O2578      H2579   0.992       .  S
C2581      C2582   1.414       .  A
C2581      C2586   1.416       .  A
C2582      C2583   1.400       .  A
C2582      H2587   1.083       .  S
C2583      C2584   1.404       .  A
C2583      O2588   1.373       .  S
C2584      C2585   1.410       .  A
C2585      C2586   1.417       .  A
C2585      H2589   1.084       .  S
C2586      O2590   1.370       .  S
O2588      H2592   0.992       .  S
O2590      H2591   0.992       .  S
C2593      C2594   1.390       .  A
C2593      C2598   1.419       .  A
C2594      C2595   1.397       .  A
C2594      H2599   1.084       .  S
C2595      C2596   1.423       .  A
C2595      O2600   1.373       .  S
C2596      C2597   1.396       .  A
C2597      C2598   1.401       .  A
C2597      H2601   1.083       .  S
C2598      O2602   1.372       .  S
O2600      H2604   0.992       .  S
O2602      H2603   0.992   1_565  S
C2605      C2606   1.407       .  A
C2605      C2610   1.405       .  A
C2606      C2607   1.393       .  A
C2606      H2611   1.078       .  S
C2607      C2608   1.403       .  A
C2607      O2612   1.373       .  S
C2608      C2609   1.414       .  A
C2609      C2610   1.407       .  A
C2609      H2613   1.083       .  S
C2610      O2614   1.371       .  S
O2612      H2616   0.992       .  S
O2614      H2615   0.992       .  S
C2617      C2618   1.406       .  A
C2617      C2622   1.420   1_565  A
C2618      C2619   1.394       .  A
C2618      H2623   1.083       .  S
C2619      C2620   1.399   1_565  A
C2619      O2624   1.371       .  S
C2620      C2621   1.387       .  A
C2621      C2622   1.383       .  A
C2621      H2625   1.086       .  S
C2622      O2626   1.376       .  S
O2624      H2628   0.992       .  S
O2626      H2627   0.992       .  S
C2629      C2630   1.418       .  A
C2629      C2634   1.408       .  A
C2630      C2631   1.418       .  A
C2630      H2635   1.083       .  S
C2631      C2632   1.408       .  A
C2631      O2636   1.370       .  S
C2632      C2633   1.411       .  A
C2633      C2634   1.402       .  A
C2633      H2637   1.083       .  S
C2634      O2638   1.372       .  S
O2636      H2640   0.992       .  S
O2638      H2639   0.992       .  S
C2641      C2642   1.413       .  A
C2641      C2646   1.401       .  A
C2642      C2643   1.416       .  A
C2642      H2647   1.084       .  S
C2643      C2644   1.410       .  A
C2643      O2648   1.371       .  S
C2644      C2645   1.416       .  A
C2645      C2646   1.403       .  A
C2645      H2649   1.084       .  S
C2646      O2650   1.371       .  S
O2648      H2652   0.992       .  S
O2650      H2651   0.992       .  S
C2653      C2654   1.391       .  A
C2653      C2658   1.419       .  A
C2654      C2655   1.400       .  A
C2654      H2659   1.084       .  S
C2655      C2656   1.421       .  A
C2655      O2660   1.372       .  S
C2656      C2657   1.395       .  A
C2657      C2658   1.405       .  A
C2657      H2661   1.083       .  S
C2658      O2662   1.373       .  S
O2660      H2664   0.992       .  S
O2662      H2663   0.992       .  S
C2665      C2666   1.401       .  A
C2665      C2670   1.408       .  A
C2666      C2667   1.396       .  A
C2666      H2671   1.083       .  S
C2667      C2668   1.410       .  A
C2667      O2672   1.373       .  S
C2668      C2669   1.408       .  A
C2669      C2670   1.407       .  A
C2669      H2673   1.083       .  S
C2670      O2674   1.371       .  S
O2672      H2676   0.992       .  S
O2674      H2675   0.991       .  S
C2677      C2678   1.413       .  A
C2677      C2682   1.404       .  A
C2678      C2679   1.413       .  A
C2678      H2683   1.084       .  S
C2679      C2680   1.406       .  A
C2679      O2684   1.371       .  S
C2680      C2681   1.411       .  A
C2681      C2682   1.406       .  A
C2681      H2685   1.083       .  S
C2682      O2686   1.371       .  S
O2684      H2688   0.992       .  S
O2686      H2687   0.992       .  S
C2689      C2690   1.402       .  A
C2689      C2694   1.411       .  A
C2690      C2691   1.399       .  A
C2690      H2695   1.084       .  S
C2691      C2692   1.417       .  A
C2691      O2696   1.372       .  S
C2692      C2693   1.411       .  A
C2693      C2694   1.413       .  A
C2693      H2697   1.083       .  S
C2694      O2698   1.371       .  S
O2696      H2700   0.992       .  S
O2698      H2699   0.992       .  S
C2701      C2702   1.397       .  A
C2701      C2706   1.417       .  A
C2702      C2703   1.392       .  A
C2702      H2707   1.084       .  S
C2703      C2704   1.419       .  A
C2703      O2708   1.373       .  S
C2704      C2705   1.405       .  A
C2705      C2706   1.412       .  A
C2705      H2709   1.083       .  S
C2706      O2710   1.371       .  S
O2708      H2712   0.992       .  S
O2710      H2711   0.992       .  S
C2713      C2714   1.416       .  A
C2713      C2718   1.401       .  A
C2714      C2715   1.398   1_455  A
C2714      H2719   1.083       .  S
C2715      C2716   1.397       .  A
C2715      O2720   1.370       .  S
C2716      C2717   1.416       .  A
C2717      C2718   1.406   1_655  A
C2717      H2721   1.084       .  S
C2718      O2722   1.371       .  S
O2720      H2724   0.991       .  S
O2722      H2723   0.991       .  S
C2725      C2726   1.406       .  A
C2725      C2730   1.406       .  A
C2726      C2727   1.405       .  A
C2726      H2731   1.084       .  S
C2727      C2728   1.409       .  A
C2727      O2732   1.371       .  S
C2728      C2729   1.407       .  A
C2729      C2730   1.401       .  A
C2729      H2733   1.084       .  S
C2730      O2734   1.372       .  S
O2732      H2736   0.992       .  S
O2734      H2735   0.992       .  S
C2737      C2738   1.412       .  A
C2737      C2742   1.410       .  A
C2738      C2739   1.417       .  A
C2738      H2743   1.083       .  S
C2739      C2740   1.413       .  A
C2739      O2744   1.371       .  S
C2740      C2741   1.408       .  A
C2741      C2742   1.401       .  A
C2741      H2745   1.084       .  S
C2742      O2746   1.372       .  S
O2744      H2748   0.992       .  S
O2746      H2747   0.992       .  S
C2749      C2750   1.404       .  A
C2749      C2754   1.414       .  A
C2750      C2751   1.400       .  A
C2750      H2755   1.084       .  S
C2751      C2752   1.416       .  A
C2751      O2756   1.372       .  S
C2752      C2753   1.410       .  A
C2753      C2754   1.414       .  A
C2753      H2757   1.083       .  S
C2754      O2758   1.372       .  S
O2756      H2760   0.992       .  S
O2758      H2759   0.992       .  S
C2761      C2762   1.397       .  A
C2761      C2766   1.403       .  A
C2762      C2763   1.390       .  A
C2762      H2767   1.084       .  S
C2763      C2764   1.405       .  A
C2763      O2768   1.373       .  S
C2764      C2765   1.399       .  A
C2765      C2766   1.388       .  A
C2765      H2769   1.084       .  S
C2766      O2770   1.372       .  S
O2768      H2772   0.992       .  S
O2770      H2771   0.991       .  S
C2773      C2774   1.392       .  A
C2773      C2778   1.415       .  A
C2774      C2775   1.396       .  A
C2774      H2779   1.084       .  S
C2775      C2776   1.422       .  A
C2775      O2780   1.371       .  S
C2776      C2777   1.406       .  A
C2777      C2778   1.414       .  A
C2777      H2781   1.083       .  S
C2778      O2782   1.371       .  S
O2780      H2784   0.991       .  S
O2782      H2783   0.992       .  S
