geometry optimzed in LAMMPS
_audit_creation_date              2020-12-01 
_audit_creation_method            'lammps2cif' 
_symmetry_space_group_name_H-M    'P1' 
_symmetry_Int_Tables_number       1 
_symmetry_cell_setting            triclinic 
loop_ 
_symmetry_equiv_pos_as_xyz 
  x,y,z 
_cell_length_a                    34.67181138 
_cell_length_b                    34.926838292177116 
_cell_length_c                    34.67418243687998 
_cell_angle_alpha                 90.13401818450448 
_cell_angle_beta                  89.90029401969474 
_cell_angle_gamma                 89.7371976545062 
loop_ 
_atom_site_label 
_atom_site_type_symbol 
_atom_site_fract_x 
_atom_site_fract_y 
_atom_site_fract_z 
_atom_site_charge 
Fe1        Fe  0.13113887  0.81567810  0.55979415     1.65800
Fe2        Fe  0.22365562  0.78619380  0.54760661     1.73200
Fe3        Fe  0.15150218  0.72393570  0.53359749     1.54400
O4          O  0.12262512  0.72059874  0.58521057    -0.82300
O5          O  0.23652474  0.74714062  0.50203098    -0.80600
O6          O  0.09730244  0.77864691  0.59388392    -0.84800
O7          O  0.09974030  0.80617508  0.51064050    -0.79700
O8          O  0.19954603  0.69678941  0.55949179    -0.81400
O9          O  0.21760976  0.83064817  0.50873927    -0.84200
C10         C  0.08925118  0.77576193  0.49377987     0.96600
C11         C  0.10161266  0.74374901  0.60428312     1.04000
O12         O  0.16857693  0.77557331  0.54649410    -1.13200
O13         O  0.22002856  0.82298426  0.59545159    -0.75600
O14         O  0.15796893  0.82872872  0.61045202    -0.79100
O15         O  0.10244986  0.74300232  0.50343942    -0.79800
C16         C  0.19311997  0.83141201  0.61913993     0.95500
O17         O  0.16210399  0.85708139  0.52824344    -0.77700
O18         O  0.23233017  0.74394825  0.58696539    -0.82900
C19         C  0.21684358  0.72587606  0.47931294     0.98100
C20         C  0.22696380  0.70877883  0.58076283     1.04000
O21         O  0.18042171  0.72426981  0.48210805    -0.78600
C22         C  0.19304985  0.85785458  0.50791893     1.02300
Fe23       Fe  0.35680598  0.89728927  0.86126066     1.65800
Fe24       Fe  0.32753687  0.90865616  0.76910907     1.73200
Fe25       Fe  0.26453939  0.92298764  0.84120317     1.54400
O26         O  0.26125238  0.87205402  0.87014661    -0.82300
O27         O  0.28773224  0.95304416  0.75606501    -0.80600
O28         O  0.31942418  0.86492895  0.89630725    -0.84800
O29         O  0.34757463  0.94671270  0.89197029    -0.79700
O30         O  0.23767094  0.89637794  0.79302051    -0.81400
O31         O  0.37131809  0.94767181  0.77468119    -0.84200
C32         C  0.31682185  0.96267975  0.90376331     0.96600
C33         C  0.28453137  0.85409234  0.89189931     1.04000
O34         O  0.31658001  0.91027588  0.82409173    -1.13200
O35         O  0.36564041  0.86221766  0.77300616    -0.75600
O36         O  0.36881992  0.84637214  0.83490729    -0.79100
O37         O  0.28386158  0.95289432  0.89063053    -0.79800
C38         C  0.37238435  0.83811305  0.79969655     0.95500
O39         O  0.39878286  0.92703425  0.82904902    -0.77700
O40         O  0.28596378  0.86885904  0.76112673    -0.82900
C41         C  0.26659841  0.97610714  0.77567137     0.98100
C42         C  0.25037747  0.87445082  0.76622555     1.04000
O43         O  0.26478379  0.97396781  0.81210916    -0.78600
C44         C  0.39939720  0.94721545  0.79817738     1.02300
Fe45       Fe  0.43385235  0.59158416  0.63822259     1.65800
Fe46       Fe  0.44489150  0.68317616  0.66603607     1.73200
Fe47       Fe  0.45551738  0.61285496  0.73086160     1.54400
O48         O  0.40236697  0.58654981  0.73266741    -0.82300
O49         O  0.48947756  0.69547701  0.70599260    -0.80600
O50         O  0.40091153  0.55731678  0.67563449    -0.84800
O51         O  0.48369406  0.56270531  0.64917210    -0.79700
O52         O  0.43051549  0.66246586  0.75640709    -0.81400
O53         O  0.48521483  0.67623951  0.62304682    -0.84200
C54         C  0.49717028  0.55014900  0.68055539     0.96600
C55         C  0.38645559  0.56369028  0.70898930     1.04000
O56         O  0.44546259  0.62910349  0.67810371    -1.13200
O57         O  0.39838046  0.67880003  0.62755512    -0.75600
O58         O  0.38285289  0.61713313  0.62485644    -0.79100
O59         O  0.48476576  0.56217854  0.71324226    -0.79800
C60         C  0.37449331  0.65198766  0.62059654     0.95500
O61         O  0.46459351  0.62219710  0.59598721    -0.77700
O62         O  0.40414104  0.69265437  0.70692181    -0.82900
C63         C  0.51162717  0.67583293  0.72801391     0.98100
C64         C  0.40980171  0.68947277  0.74264662     1.04000
O65         O  0.50782132  0.63987095  0.73145478    -0.78600
C66         C  0.48561073  0.65225729  0.59548674     1.02300
Fe67       Fe  0.85356704  0.55404148  0.09574946     1.65800
Fe68       Fe  0.82790591  0.54076089  0.18711130     1.73200
Fe69       Fe  0.76227270  0.52689052  0.11819380     1.54400
O70         O  0.75647132  0.57833962  0.08965777    -0.82300
O71         O  0.78806409  0.49708609  0.20209972    -0.80600
O72         O  0.81381940  0.58463000  0.06139823    -0.84800
O73         O  0.84509445  0.50460614  0.06626040    -0.79700
O74         O  0.73713315  0.55167986  0.16874949    -0.81400
O75         O  0.87052700  0.50089293  0.17993512    -0.84200
C76         C  0.81459656  0.48804153  0.05527246     0.96600
C77         C  0.77886111  0.59548730  0.06634434     1.04000
O78         O  0.81495648  0.53926108  0.13317759    -1.13200
O79         O  0.86724255  0.58546621  0.18247562    -0.75600
O80         O  0.86311115  0.60548384  0.12223538    -0.79100
O81         O  0.78122340  0.49782212  0.06793972    -0.79800
C82         C  0.86931880  0.61188928  0.15744445     0.95500
O83         O  0.89789666  0.52488137  0.12692363    -0.77700
O84         O  0.78745726  0.58190971  0.19211657    -0.82900
C85         C  0.76712946  0.47358488  0.18316268     0.98100
C86         C  0.75277193  0.57238384  0.19476439     1.04000
O87         O  0.76488930  0.47550502  0.14669374    -0.78600
C88         C  0.89869167  0.50264539  0.15650481     1.02300
Fe89       Fe  0.62984236  0.63166395  0.39891339     1.65800
Fe90       Fe  0.72142105  0.65580605  0.41650517     1.73200
Fe91       Fe  0.65232613  0.72292832  0.42351230     1.54400
O92         O  0.62406984  0.72627130  0.37132199    -0.82300
O93         O  0.73548508  0.69739586  0.45822029    -0.80600
O94         O  0.59775869  0.66894372  0.36325576    -0.84800
O95         O  0.59729011  0.64305216  0.44638460    -0.79700
O96         O  0.70226693  0.74495483  0.39564904    -0.81400
O97         O  0.71040472  0.61669447  0.45868741    -0.84200
C98         C  0.58754641  0.67382898  0.46314258     0.96600
C99         C  0.60277380  0.70349911  0.35237571     1.04000
O100        O  0.66742692  0.67017055  0.41364909    -1.13200
O101        O  0.71769379  0.61383941  0.37375736    -0.75600
O102        O  0.65906466  0.61866994  0.34978504    -0.79100
O103        O  0.60228571  0.70622918  0.45423114    -0.79800
C104        C  0.69409780  0.60989378  0.34601224     0.95500
O105        O  0.65866857  0.58931892  0.43229070    -0.77700
O106        O  0.73327077  0.69323438  0.37403192    -0.82900
C107        C  0.71627710  0.72018784  0.47973967     0.98100
C108        C  0.72935791  0.72912771  0.37594305     1.04000
O109        O  0.68019448  0.72424699  0.47578693    -0.78600
C110        C  0.68673911  0.58913676  0.45646417     1.02300
Fe111      Fe  0.93083520  0.85663737  0.31947243     1.65800
Fe112      Fe  0.94770732  0.76582444  0.29311839     1.73200
Fe113      Fe  0.95607849  0.83572265  0.22760447     1.54400
O114        O  0.90357681  0.86332641  0.22434725    -0.82300
O115        O  0.99124238  0.75262496  0.25220677    -0.80600
O116        O  0.89859481  0.89117917  0.28174730    -0.84800
O117        O  0.98011582  0.88699904  0.31051283    -0.79700
O118        O  0.92973145  0.78628297  0.20295446    -0.81400
O119        O  0.98847711  0.77546040  0.33477708    -0.84200
C120        C  0.99621715  0.89818661  0.27969585     0.96600
C121        C  0.88637899  0.88591821  0.24747053     1.04000
O122        O  0.94562023  0.81968292  0.28008777    -1.13200
O123        O  0.90258868  0.76952380  0.33306886    -0.75600
O124        O  0.88016642  0.82890900  0.32935555    -0.79100
O125        O  0.98596968  0.88551281  0.24647046    -0.79800
C126        C  0.87511153  0.79374768  0.33561858     0.95500
O127        O  0.96083210  0.82614427  0.36271400    -0.77700
O128        O  0.90656940  0.75519715  0.25367061    -0.82900
C129        C  0.01276137  0.77242209  0.23000431     0.98100
C130        C  0.91018196  0.75888053  0.21768205     1.04000
O131        O  0.00825965  0.80828540  0.22700524    -0.78600
C132        C  0.98522328  0.79846570  0.36307628     1.02300
Fe133      Fe  0.59589993  0.08661387  0.81795864     1.65800
Fe134      Fe  0.57640995  0.17742870  0.79735650     1.73200
Fe135      Fe  0.57021624  0.11233608  0.72715671     1.54400
O136        O  0.62311120  0.08592647  0.72179824    -0.82300
O137        O  0.53470686  0.19308872  0.75494071    -0.80600
O138        O  0.63029825  0.05634293  0.77806619    -0.84800
O139        O  0.54856686  0.05468714  0.80594123    -0.79700
O140        O  0.59531248  0.16450333  0.70681347    -0.81400
O141        O  0.53433830  0.16431829  0.83616327    -0.84200
C142        C  0.53281413  0.04515066  0.77449373     0.96600
C143        C  0.64124881  0.06285397  0.74348138     1.04000
O144        O  0.57993427  0.12485474  0.78086768    -1.13200
O145        O  0.61910542  0.17258817  0.84010728    -0.75600
O146        O  0.64519976  0.11564977  0.83116210    -0.79100
O147        O  0.54181561  0.06072058  0.74222720    -0.79800
C148        C  0.64785049  0.14981176  0.84254231     0.95500
O149        O  0.56331145  0.11360415  0.86264448    -0.77700
O150        O  0.61938001  0.18889419  0.76049168    -0.82900
C151        C  0.51370341  0.17433981  0.73129152     0.98100
C152        C  0.61452810  0.19043212  0.72455496     1.04000
O153        O  0.51723566  0.13836569  0.72844136    -0.78600
C154        C  0.53837914  0.14094020  0.86396146     1.02300
Fe155      Fe  0.90007343  0.31200644  0.90157419     1.65800
Fe156      Fe  0.80749200  0.28839159  0.91515495     1.73200
Fe157      Fe  0.87571556  0.22156332  0.92722713     1.54400
O158        O  0.90315631  0.21670716  0.87418825    -0.82300
O159        O  0.79275952  0.24914270  0.95962272    -0.80600
O160        O  0.93325726  0.27270037  0.86950694    -0.84800
O161        O  0.93007159  0.30216445  0.95093510    -0.79700
O162        O  0.82378580  0.19766712  0.90337040    -0.81400
O163        O  0.81549117  0.33104432  0.95479849    -0.84200
C164        C  0.94079413  0.27123506  0.96659764     0.96600
C165        C  0.92670605  0.23888485  0.85706731     1.04000
O166        O  0.86149100  0.27440771  0.91592744    -1.13200
O167        O  0.81259766  0.32656369  0.86926210    -0.75600
O168        O  0.87365379  0.32363344  0.85043500    -0.79100
O169        O  0.92697549  0.23865263  0.95650323    -0.79800
C170        C  0.83850808  0.32957779  0.84344016     0.95500
O171        O  0.87033490  0.35566780  0.93166017    -0.77700
O172        O  0.80005405  0.24813164  0.87427835    -0.82900
C173        C  0.81168090  0.22688532  0.98205096     0.98100
C174        C  0.79684561  0.21381484  0.88401921     1.04000
O175        O  0.84809052  0.22390364  0.97945833    -0.78600
C176        C  0.84046967  0.35755319  0.95346805     1.02300
Fe177      Fe  0.67385574  0.39430207  0.60302518     1.65800
Fe178      Fe  0.70115651  0.41167946  0.69434461     1.73200
Fe179      Fe  0.76576817  0.42090142  0.62264840     1.54400
O180        O  0.76977249  0.36977904  0.59340523    -0.82300
O181        O  0.74183678  0.45456431  0.70728626    -0.80600
O182        O  0.71140903  0.36042972  0.56900511    -0.84800
O183        O  0.68285582  0.44246220  0.57087450    -0.79700
O184        O  0.79126423  0.39375027  0.67085980    -0.81400
O185        O  0.65893205  0.45197778  0.68520925    -0.84200
C186        C  0.71306130  0.46009126  0.56062434     0.96600
C187        C  0.74691077  0.35095802  0.57215157     1.04000
O188        O  0.71359693  0.40938540  0.63970192    -1.13200
O189        O  0.66072417  0.36759778  0.69160150    -0.75600
O190        O  0.66267379  0.34478011  0.63207050    -0.79100
O191        O  0.74634409  0.45129667  0.57386816    -0.79800
C192        C  0.65618021  0.34039487  0.66757520     0.95500
O193        O  0.63118921  0.42565112  0.63356876    -0.77700
O194        O  0.74176520  0.37119183  0.70493656    -0.82900
C195        C  0.76378717  0.47605080  0.68735160     0.98100
C196        C  0.77762784  0.37405863  0.69874444     1.04000
O197        O  0.76632439  0.47227056  0.65114332    -0.78600
C198        C  0.63056327  0.44897623  0.66224774     1.02300
Fe199      Fe  0.39793020  0.13558251  0.06422538     1.65800
Fe200      Fe  0.30598613  0.16092933  0.04718825     1.73200
Fe201      Fe  0.37567165  0.22543462  0.03378271     1.54400
O202        O  0.40404840  0.23202125  0.08548855    -0.82300
O203        O  0.29160079  0.20024669  0.00274901    -0.80600
O204        O  0.43019253  0.17496416  0.09655380    -0.84800
O205        O  0.43057170  0.14276183  0.01572985    -0.79700
O206        O  0.32624447  0.25099777  0.05974624    -0.81400
O207        O  0.31528861  0.11780559  0.00807632    -0.84200
C208        C  0.43954025  0.17235296  0.99677714     0.96600
C209        C  0.42506988  0.21009607  0.10567670     1.04000
O210        O  0.36031797  0.17374651  0.04750915    -1.13200
O211        O  0.30955361  0.12279185  0.09334699    -0.75600
O212        O  0.36941977  0.12644040  0.11481371    -0.79100
O213        O  0.42519454  0.20542278  0.00420317    -0.79800
C214        C  0.33412130  0.12035053  0.12044138     0.95500
O215        O  0.36842395  0.09182487  0.03398851    -0.77700
O216        O  0.29660522  0.20181313  0.08714894    -0.82900
C217        C  0.31071528  0.22151818  0.97975163     0.98100
C218        C  0.29968770  0.23728107  0.08128771     1.04000
O219        O  0.34714652  0.22312314  0.98200808    -0.78600
C220        C  0.33963858  0.09054322  0.01073738     1.02300
Fe221      Fe  0.09489360  0.35826343  0.14142547     1.65800
Fe222      Fe  0.08054422  0.26783083  0.17042895     1.73200
Fe223      Fe  0.06995007  0.33904106  0.23426361     1.54400
O224        O  0.12305670  0.36508591  0.23708560    -0.82300
O225        O  0.03603044  0.25654810  0.21101029    -0.80600
O226        O  0.12864687  0.39196505  0.17917867    -0.84800
O227        O  0.04646065  0.39022085  0.15087812    -0.79700
O228        O  0.09312921  0.28844304  0.26070265    -0.81400
O229        O  0.04053283  0.27441286  0.12757198    -0.84200
C230        C  0.03166391  0.40254263  0.18191323     0.96600
C231        C  0.14074712  0.38678316  0.21369162     1.04000
O232        O  0.08064401  0.32210600  0.18161339    -1.13200
O233        O  0.12629955  0.26982575  0.13121549    -0.75600
O234        O  0.14525125  0.33032006  0.12951475    -0.79100
O235        O  0.04183675  0.38973845  0.21504289    -0.79800
C236        C  0.15193321  0.29509724  0.12525140     0.95500
O237        O  0.06315108  0.32717972  0.09930974    -0.77700
O238        O  0.12158396  0.26096762  0.21107000    -0.82900
C239        C  0.01389821  0.27671888  0.23268264     0.98100
C240        C  0.11206063  0.26048191  0.24597548     1.04000
O241        O  0.01725318  0.31283601  0.23430599    -0.78600
C242        C  0.04134686  0.29745586  0.09928306     1.02300
Fe243      Fe  0.17149698  0.05470372  0.36564007     1.65800
Fe244      Fe  0.19587560  0.03892960  0.27348289     1.73200
Fe245      Fe  0.26353574  0.03085123  0.34226415     1.54400
O246        O  0.26677738  0.08238507  0.37071012    -0.82300
O247        O  0.23816048  0.99697030  0.25885768    -0.80600
O248        O  0.20919074  0.08963985  0.39797614    -0.84800
O249        O  0.18335187  0.00672967  0.39748127    -0.79700
O250        O  0.28589920  0.05888159  0.29258692    -0.81400
O251        O  0.15544424  0.99746619  0.28309890    -0.84200
C252        C  0.21465580  0.99034667  0.40694303     0.96600
C253        C  0.24379383  0.10087700  0.39240435     1.04000
O254        O  0.21021177  0.04062650  0.32754437    -1.13200
O255        O  0.15389624  0.08239038  0.27782663    -0.75600
O256        O  0.15803310  0.10425184  0.33741337    -0.79100
O257        O  0.24715117  0.99983451  0.39217953    -0.79800
C258        C  0.14932818  0.10913905  0.30248233     0.95500
O259        O  0.12869993  0.02238071  0.33621340    -0.77700
O260        O  0.23368707  0.08106318  0.26294746    -0.82900
C261        C  0.26138911  0.97571949  0.27794336     0.98100
C262        C  0.26980112  0.07911471  0.26628618     1.04000
O263        O  0.26473451  0.97939270  0.31408404    -0.78600
C264        C  0.12763993  0.99968329  0.30697188     1.02300
Fe265      Fe  0.09437305  0.09129652  0.63691748     1.65800
Fe266      Fe  0.07739027  0.18151239  0.66397514     1.73200
Fe267      Fe  0.06815931  0.11168826  0.72895992     1.54400
O268        O  0.04040420  0.06073440  0.70957221    -0.82300
O269        O  0.11837834  0.19064989  0.70393156    -0.80600
O270        O  0.04550755  0.06120571  0.64555781    -0.84800
O271        O  0.12641204  0.05735172  0.67540287    -0.79700
O272        O  0.01497260  0.13776035  0.72834053    -0.81400
O273        O  0.12265721  0.17839571  0.62390199    -0.84200
C274        C  0.13868828  0.06267186  0.70969768     0.96600
C275        C  0.02996927  0.04889691  0.67607425     1.04000
O276        O  0.07921226  0.12782784  0.67645532    -1.13200
O277        O  0.03710708  0.17226862  0.62235692    -0.75600
O278        O  0.06443642  0.12178752  0.59362888    -0.79100
O279        O  0.12159671  0.08550935  0.73279063    -0.79800
C280        C  0.04066817  0.15003309  0.59359113     0.95500
O281        O  0.14472447  0.11873772  0.62623167    -0.77700
O282        O  0.03325982  0.19379175  0.70482818    -0.82900
C283        C  0.11013180  0.19062953  0.73922472     0.98100
C284        C  0.01132292  0.17384455  0.72658887     1.04000
O285        O  0.09143255  0.16282748  0.75432857    -0.78600
C286        C  0.14964473  0.15381842  0.61971740     1.02300
Fe287      Fe  0.17392792  0.39403957  0.86192206     1.65800
Fe288      Fe  0.19915958  0.40976270  0.77026833     1.73200
Fe289      Fe  0.26591612  0.41876217  0.83968586     1.54400
O290        O  0.24825535  0.44944500  0.88926792    -0.82300
O291        O  0.23818714  0.36850241  0.75953566    -0.80600
O292        O  0.18449794  0.44241021  0.89316735    -0.84800
O293        O  0.21197978  0.36000350  0.89514005    -0.79700
O294        O  0.26665342  0.47033250  0.81118467    -0.81400
O295        O  0.15827318  0.36577347  0.77419571    -0.84200
C296        C  0.24690801  0.34897418  0.89035897     0.96600
C297        C  0.21531015  0.45929489  0.90284094     1.04000
O298        O  0.21300224  0.40818976  0.82434006    -1.13200
O299        O  0.15845634  0.45089163  0.78001138    -0.75600
O300        O  0.13053761  0.42604664  0.83212998    -0.79100
O301        O  0.26980529  0.36722037  0.86854993    -0.79800
C302        C  0.13034568  0.44926991  0.80334093     0.95500
O303        O  0.16187603  0.34394470  0.83382235    -0.77700
O304        O  0.23989097  0.45239510  0.75611329    -0.82900
C305        C  0.27414033  0.37118218  0.76354727     0.98100
C306        C  0.26224393  0.47434557  0.77516952     1.04000
O307        O  0.28938646  0.39132742  0.79031927    -0.78600
C308        C  0.15358342  0.33910327  0.79877693     1.02300
Fe309      Fe  0.39706518  0.31400123  0.56046426     1.65800
Fe310      Fe  0.30509103  0.28960926  0.54277885     1.73200
Fe311      Fe  0.37497027  0.22363643  0.53287939     1.54400
O312        O  0.42574959  0.24188686  0.50484910    -0.82300
O313        O  0.29289790  0.24873999  0.58158077    -0.80600
O314        O  0.42800826  0.30531181  0.51157264    -0.84800
O315        O  0.43058152  0.27480684  0.59281078    -0.79700
O316        O  0.34837114  0.22511982  0.48023274    -0.81400
O317        O  0.30846003  0.32690192  0.59009947    -0.84200
C318        C  0.42493234  0.24027993  0.60363289     0.96600
C319        C  0.43894330  0.27469563  0.49528039     1.04000
O320        O  0.35926363  0.27584362  0.54482425    -1.13200
O321        O  0.31537101  0.33257050  0.50420676    -0.75600
O322        O  0.36754971  0.35846504  0.53093304    -0.79100
O323        O  0.40191577  0.21852321  0.58554727    -0.79800
C324        C  0.33885764  0.36013291  0.50767373     0.95500
O325        O  0.36907577  0.32424601  0.61059260    -0.77700
O326        O  0.29243047  0.25105267  0.49727469    -0.82900
C327        C  0.29668531  0.21313861  0.57670932     0.98100
C328        C  0.31226599  0.22857311  0.47578296     1.04000
O329        O  0.32461157  0.19890088  0.55717965    -0.78600
C330        C  0.33381919  0.33056385  0.61643410     1.02300
Fe331      Fe  0.67370700  0.05383264  0.09252802     1.65800
Fe332      Fe  0.69518323  0.03677543  0.18499840     1.73200
Fe333      Fe  0.76456334  0.02915484  0.11834950     1.54400
O334        O  0.74913581  0.99921193  0.06749269    -0.82300
O335        O  0.73311166  0.07822721  0.19885243    -0.80600
O336        O  0.68525784  0.00519768  0.06156350    -0.84800
O337        O  0.71304109  0.08688109  0.06047439    -0.79700
O338        O  0.76401163  0.97729829  0.14539789    -0.81400
O339        O  0.65366949  0.08015182  0.17912256    -0.84200
C340        C  0.74711391  0.09871121  0.06764308     0.96600
C341        C  0.71691503  0.98906549  0.05265345     1.04000
O342        O  0.71120365  0.03938017  0.13160572    -1.13200
O343        O  0.65551360  0.99574470  0.17228488    -0.75600
O344        O  0.62895513  0.02351416  0.12097470    -0.79100
O345        O  0.76899800  0.08108636  0.09095168    -0.79800
C346        C  0.62741241  0.99988120  0.14920936     0.95500
O347        O  0.66107989  0.10375910  0.12057546    -0.77700
O348        O  0.73638095  0.99443728  0.20039125    -0.82900
C349        C  0.76932921  0.07535533  0.19627457     0.98100
C350        C  0.75971281  0.97317759  0.18135665     1.04000
O351        O  0.78567372  0.05576359  0.16946482    -0.78600
C352        C  0.65083682  0.10775520  0.15524310     1.02300
Fe353      Fe  0.89388780  0.13346637  0.39947976     1.65800
Fe354      Fe  0.80297497  0.16114457  0.41660618     1.73200
Fe355      Fe  0.87417854  0.22460712  0.42707507     1.54400
O356        O  0.92454751  0.20522533  0.45472101    -0.82300
O357        O  0.79455899  0.20107810  0.37605059    -0.80600
O358        O  0.92554385  0.14177100  0.44801466    -0.84800
O359        O  0.92806088  0.17168317  0.36681705    -0.79700
O360        O  0.84706454  0.22311200  0.47949295    -0.81400
O361        O  0.80527423  0.12202412  0.37075549    -0.84200
C362        C  0.92414898  0.20676002  0.35681834     0.96600
C363        C  0.93774619  0.17216249  0.46359740     1.04000
O364        O  0.85742163  0.17287780  0.41505169    -1.13200
O365        O  0.81125409  0.11887388  0.45653559    -0.75600
O366        O  0.86284773  0.09068468  0.43011027    -0.79100
O367        O  0.90174070  0.22939943  0.37490245    -0.79800
C368        C  0.83391596  0.09034767  0.45340250     0.95500
O369        O  0.86544713  0.12333137  0.34917324    -0.77700
O370        O  0.79027795  0.20172340  0.46064304    -0.82900
C371        C  0.79805211  0.23660193  0.38119289     0.98100
C372        C  0.81066471  0.22284838  0.48270040     1.04000
O373        O  0.82472089  0.25051479  0.40229626    -0.78600
C374        C  0.83000485  0.11759879  0.34388244     1.02300
Fe375      Fe  0.59577528  0.35794841  0.32040961     1.65800
Fe376      Fe  0.57974564  0.26693312  0.29576899     1.73200
Fe377      Fe  0.57075937  0.33493317  0.22892492     1.54400
O378        O  0.54375649  0.38711574  0.24608494    -0.82300
O379        O  0.62125225  0.25800583  0.25599308    -0.80600
O380        O  0.54729307  0.38874606  0.31018542    -0.84800
O381        O  0.62904709  0.39008854  0.28119678    -0.79700
O382        O  0.51753101  0.30964324  0.23039326    -0.81400
O383        O  0.62464772  0.27059831  0.33554743    -0.84200
C384        C  0.64160860  0.38309902  0.24714681     0.96600
C385        C  0.53291591  0.40051019  0.27887177     1.04000
O386        O  0.58094164  0.32035177  0.28206165    -1.13200
O387        O  0.53941876  0.27641925  0.33751698    -0.75600
O388        O  0.56470958  0.32893897  0.36399674    -0.79100
O389        O  0.62442897  0.35982766  0.22484803    -0.79800
C390        C  0.54169558  0.30027996  0.36510346     0.95500
O391        O  0.64580673  0.33028466  0.33234574    -0.77700
O392        O  0.53545676  0.25411443  0.25560367    -0.82900
C393        C  0.61218875  0.25567817  0.22111365     0.98100
C394        C  0.51349269  0.27365853  0.23343266     1.04000
O395        O  0.59333845  0.28281758  0.20500104    -0.78600
C396        C  0.65126820  0.29530482  0.33899634     1.02300
Fe397      Fe  0.13376804  0.63595176  0.05862114     1.65800
Fe398      Fe  0.22440312  0.66113839  0.03801577     1.73200
Fe399      Fe  0.15383322  0.72746446  0.03517443     1.54400
O400        O  0.10361259  0.71021905  0.00573125    -0.82300
O401        O  0.23791118  0.69869080  0.07983895    -0.80600
O402        O  0.10097661  0.64655873  0.01119041    -0.84800
O403        O  0.10012296  0.67246425  0.09336962    -0.79700
O404        O  0.18050301  0.72968694  0.98261602    -0.81400
O405        O  0.22214145  0.61922135  0.08118471    -0.84200
C406        C  0.10418833  0.70682952  0.10506148     0.96600
C407        C  0.08976563  0.67766144  0.99605184     1.04000
O408        O  0.17035302  0.67503345  0.04344121    -1.13200
O409        O  0.21211426  0.62169908  0.99605445    -0.75600
O410        O  0.16315895  0.59355574  0.02629902    -0.79100
O411        O  0.12630432  0.72998210  0.08773021    -0.79800
C412        C  0.18983041  0.59330202  0.00068178     0.95500
O413        O  0.16424531  0.62450429  0.10739034    -0.77700
O414        O  0.23681090  0.70337685  0.99626025    -0.82900
C415        C  0.23177341  0.73432180  0.07994951     0.98100
C416        C  0.21644403  0.72712246  0.97708657     1.04000
O417        O  0.20347936  0.74983719  0.06209905    -0.78600
C418        C  0.19945523  0.61564043  0.10992221     1.02300
Fe419      Fe  0.43170776  0.85750453  0.13927411     1.65800
Fe420      Fe  0.45078397  0.76589055  0.16338020     1.73200
Fe421      Fe  0.45918736  0.83498197  0.23024710     1.54400
O422        O  0.48758646  0.88557597  0.21219616    -0.82300
O423        O  0.41167405  0.75243886  0.20421000    -0.80600
O424        O  0.47944165  0.88948184  0.14871324    -0.84800
O425        O  0.39791070  0.88938507  0.17848552    -0.79700
O426        O  0.51193287  0.80818688  0.22909294    -0.81400
O427        O  0.40416518  0.76900658  0.12522849    -0.84200
C428        C  0.38754031  0.88415430  0.21345574     0.96600
C429        C  0.49625482  0.89984407  0.17930644     1.04000
O430        O  0.44761166  0.81968051  0.17760078    -1.13200
O431        O  0.48972308  0.77753000  0.12069630    -0.75600
O432        O  0.46273966  0.82952099  0.09485067    -0.79100
O433        O  0.40643261  0.86211475  0.23558884    -0.79800
C434        C  0.48643175  0.80131715  0.09322364     0.95500
O435        O  0.38255282  0.82892102  0.12774592    -0.77700
O436        O  0.49593540  0.75285908  0.20243951    -0.82900
C437        C  0.41572765  0.75669603  0.24013130     0.98100
C438        C  0.51698923  0.77241211  0.22532431     1.04000
O439        O  0.43444776  0.78483573  0.25448989    -0.78600
C440        C  0.37753315  0.79390258  0.12112359     1.02300
Fe441      Fe  0.35478650  0.55473987  0.36390250     1.65800
Fe442      Fe  0.33308159  0.53929373  0.27174923     1.73200
Fe443      Fe  0.26447386  0.52823874  0.33824035     1.54400
O444        O  0.28115186  0.49969985  0.38982399    -0.82300
O445        O  0.29395124  0.58069762  0.26319435    -0.80600
O446        O  0.34507883  0.50549134  0.39357698    -0.84800
O447        O  0.31396648  0.58606362  0.39666817    -0.79700
O448        O  0.26743468  0.47621756  0.31093869    -0.81400
O449        O  0.37296435  0.58374025  0.27750262    -0.84200
C450        C  0.27965712  0.59776060  0.38957429     0.96600
C451        C  0.31392095  0.48959431  0.40382202     1.04000
O452        O  0.31771758  0.53958878  0.32513328    -1.13200
O453        O  0.37444167  0.49895648  0.28178188    -0.75600
O454        O  0.40012261  0.52554262  0.33442872    -0.79100
O455        O  0.25839996  0.58047353  0.36544195    -0.79800
C456        C  0.40212550  0.50253483  0.30547392     0.95500
O457        O  0.36556371  0.60560837  0.33701617    -0.77700
O458        O  0.29262745  0.49633882  0.25592541    -0.82900
C459        C  0.25895968  0.57256928  0.26005699     0.98100
C460        C  0.27014089  0.47405542  0.27455484     1.04000
O461        O  0.24200178  0.55273110  0.28604819    -0.78600
C462        C  0.37397261  0.61086717  0.30205255     1.02300
Fe463      Fe  0.63121338  0.81525792  0.89717420     1.65800
Fe464      Fe  0.72172247  0.78675612  0.91572809     1.73200
Fe465      Fe  0.64983714  0.72378962  0.92276307     1.54400
O466        O  0.59929361  0.74336687  0.95043494    -0.82300
O467        O  0.73276681  0.74707502  0.87450134    -0.80600
O468        O  0.59914273  0.80713149  0.94581792    -0.84800
O469        O  0.59663784  0.77795691  0.86419788    -0.79700
O470        O  0.67539927  0.72392329  0.97573903    -0.81400
O471        O  0.71954470  0.82721489  0.87129320    -0.84200
C472        C  0.60156468  0.74365827  0.85214947     0.96600
C473        C  0.58732616  0.77644144  0.96115374     1.04000
O474        O  0.66726465  0.77535671  0.91245482    -1.13200
O475        O  0.71199488  0.82833773  0.95647871    -0.75600
O476        O  0.66248284  0.85764855  0.92786730    -0.79100
O477        O  0.62389187  0.72052110  0.86952772    -0.79800
C478        C  0.69041637  0.85755625  0.95214811     0.95500
O479        O  0.66056850  0.82460036  0.84712625    -0.77700
O480        O  0.73290870  0.74506930  0.95896585    -0.82900
C481        C  0.72818615  0.71160752  0.87943198     0.98100
C482        C  0.71163958  0.72339308  0.97966200     1.04000
O483        O  0.69998020  0.69811982  0.89882747    -0.78600
C484        C  0.69619494  0.83052223  0.84311062     1.02300
Fe485      Fe  0.85485970  0.89320173  0.59034766     1.65800
Fe486      Fe  0.83174345  0.90936801  0.68245211     1.73200
Fe487      Fe  0.76298958  0.91593633  0.61539910     1.54400
O488        O  0.77828335  0.94440404  0.56352224    -0.82300
O489        O  0.79403955  0.86729535  0.69319825    -0.80600
O490        O  0.84254540  0.94126705  0.55950420    -0.84800
O491        O  0.81602406  0.85947826  0.55856555    -0.79700
O492        O  0.76280407  0.96860932  0.64117972    -0.81400
O493        O  0.87297542  0.86567683  0.67786528    -0.84200
C494        C  0.78261933  0.84606027  0.56611744     0.96600
C495        C  0.81052482  0.95563229  0.54938138     1.04000
O496        O  0.81675964  0.90726879  0.62895948    -1.13200
O497        O  0.87196981  0.95043931  0.67192151    -0.75600
O498        O  0.89841840  0.92486201  0.61889791    -0.79100
O499        O  0.75998693  0.86267476  0.58973646    -0.79800
C500        C  0.89948550  0.94784467  0.64784054     0.95500
O501        O  0.86831417  0.84349475  0.61817062    -0.77700
O502        O  0.79011495  0.95188069  0.69642834    -0.82900
C503        C  0.75810538  0.87209673  0.69389969     0.98100
C504        C  0.76671985  0.97284713  0.67723334     1.04000
O505        O  0.74117992  0.89145620  0.66751954    -0.78600
C506        C  0.87591364  0.83863228  0.65334025     1.02300
Fe507      Fe  0.93522655  0.59488582  0.82289669     1.65800
Fe508      Fe  0.94735817  0.68660790  0.79532332     1.73200
Fe509      Fe  0.95843327  0.61610368  0.73036000     1.54400
O510        O  0.98912403  0.56646833  0.74817688    -0.82300
O511        O  0.90608357  0.69618233  0.75522890    -0.80600
O512        O  0.98424275  0.56413181  0.81220762    -0.84800
O513        O  0.90196108  0.56086265  0.78570437    -0.79700
O514        O  0.01000643  0.64449892  0.72987283    -0.81400
O515        O  0.90209961  0.68268035  0.83516902    -0.84200
C516        C  0.88976614  0.56526873  0.75125426     0.96600
C517        C  0.99933375  0.55285279  0.78091558     1.04000
O518        O  0.94755619  0.63227136  0.78302650    -1.13200
O519        O  0.98811402  0.67895669  0.83726591    -0.75600
O520        O  0.96632081  0.62561881  0.86486195    -0.79100
O521        O  0.90649160  0.58756689  0.72762956    -0.79800
C522        C  0.98763510  0.65550873  0.86517346     0.95500
O523        O  0.88470865  0.62155869  0.83622428    -0.77700
O524        O  0.99089421  0.70001712  0.75454857    -0.82900
C525        C  0.91139753  0.69258913  0.71942431     0.98100
C526        C  0.01307396  0.68061537  0.73234796     1.04000
O527        O  0.93177135  0.66520302  0.70546989    -0.78600
C528        C  0.87747616  0.65651932  0.84159489     1.02300
C529        C  0.92174855  0.74001907  0.66669715    -0.26900
C530        C  0.89739802  0.72470713  0.69522760    -0.15000
C531        C  0.86481653  0.74615465  0.70707120     0.35600
C532        C  0.85916788  0.78331175  0.69326335    -0.26400
C533        C  0.88469177  0.79952959  0.66676502    -0.15600
C534        C  0.91532417  0.77699762  0.65194726     0.36700
N535        N  0.94116462  0.79151193  0.62329685    -0.89900
H536        H  0.94718049  0.72425015  0.65757428     0.17800
H537        H  0.83444889  0.79958644  0.70328441     0.17800
N538        N  0.83773692  0.73058906  0.73393990    -0.88900
H539        H  0.95334034  0.81682387  0.63373832     0.35200
H540        H  0.92525569  0.79794211  0.59855897     0.40300
H541        H  0.81056721  0.73046581  0.72088874     0.39900
H542        H  0.83632281  0.74889714  0.75781610     0.34800
C543        C  0.68672403  0.85846266  0.77695644    -0.26900
C544        C  0.71088939  0.84046281  0.80425417    -0.15000
C545        C  0.74825529  0.82937180  0.79303958     0.35600
C546        C  0.76116687  0.83731336  0.75588721    -0.26400
C547        C  0.73827680  0.85745332  0.72903808    -0.15600
C548        C  0.70029688  0.86754272  0.73967766     0.36700
N549        N  0.67583608  0.88780089  0.71341079    -0.89900
H550        H  0.65751631  0.86641783  0.78486724     0.17800
H551        H  0.79035877  0.82867204  0.74882749     0.17800
N552        N  0.77340806  0.80964830  0.81915495    -0.88900
H553        H  0.66753815  0.91360470  0.72641082     0.35200
H554        H  0.65101255  0.87148246  0.70907592     0.40300
H555        H  0.79829559  0.82608670  0.82266637     0.39900
H556        H  0.78150216  0.78362983  0.80652085     0.34800
C557        C  0.78210615  0.66824980  0.89448478    -0.26900
C558        C  0.76018582  0.68717205  0.86616220    -0.15000
C559        C  0.77637561  0.69299579  0.82918285     0.35600
C560        C  0.81496140  0.68320215  0.82266392    -0.26400
C561        C  0.83766912  0.66706996  0.85172135    -0.15600
C562        C  0.82068664  0.65802603  0.88753392     0.36700
N563        N  0.84240988  0.64023554  0.91773223    -0.89900
H564        H  0.77021419  0.66416242  0.92309137     0.17800
H565        H  0.82737472  0.68794581  0.79447245     0.17800
N566        N  0.75485426  0.70995973  0.79811803    -0.88900
H567        H  0.86622952  0.65745378  0.92385380     0.35200
H568        H  0.85248420  0.61376156  0.90773734     0.40300
H569        H  0.72601467  0.71416387  0.80584291     0.39900
H570        H  0.75453473  0.69024529  0.77538814     0.34800
C571        C  0.53212751  0.81021611  0.99282357    -0.26900
C572        C  0.55929783  0.78021329  0.99336382    -0.15000
C573        C  0.56205904  0.75724103  0.02651955     0.35600
C574        C  0.53810092  0.76469956  0.05836330    -0.26400
C575        C  0.51098704  0.79495526  0.05820974    -0.15600
C576        C  0.50791321  0.81763268  0.02459966     0.36700
N577        N  0.48041951  0.84826497  0.02236043    -0.89900
H578        H  0.52983512  0.82832767  0.96758095     0.17800
H579        H  0.54133927  0.74678716  0.08362460     0.17800
N580        N  0.59039008  0.72737542  0.02877836    -0.88900
H581        H  0.46227327  0.84295472  0.99892494     0.35200
H582        H  0.49538100  0.87362052  0.01687367     0.40300
H583        H  0.57614413  0.70164841  0.03431717     0.39900
H584        H  0.60839016  0.73323264  0.05221249     0.34800
C585        C  0.41317440  0.67083616  0.30665081    -0.26900
C586        C  0.38318641  0.65008232  0.28930446    -0.15000
C587        C  0.36025763  0.66792475  0.26114292     0.35600
C588        C  0.36854348  0.70519063  0.24943571    -0.26400
C589        C  0.40054625  0.72499856  0.26400739    -0.15600
C590        C  0.42261112  0.70801734  0.29374097     0.36700
N591        N  0.45596850  0.72723744  0.30867123    -0.89900
H592        H  0.43025717  0.65737814  0.32902036     0.17800
H593        H  0.35126086  0.71776092  0.22668443     0.17800
N594        N  0.32855249  0.64817485  0.24395757    -0.88900
H595        H  0.47003996  0.71011463  0.32899170     0.35200
H596        H  0.44631189  0.75164736  0.32336024     0.40300
H597        H  0.30346804  0.66419731  0.24889789     0.39900
H598        H  0.33317668  0.64684964  0.21417396     0.34800
C599        C  0.01122151  0.63818067  0.93100152    -0.26900
C600        C  0.01244065  0.66339385  0.89952790    -0.15000
C601        C  0.03695820  0.69578880  0.90193957     0.35600
C602        C  0.06056371  0.70111561  0.93448141    -0.26400
C603        C  0.06038178  0.67486380  0.96500890    -0.15600
C604        C  0.03452799  0.64372574  0.96352409     0.36700
N605        N  0.03159459  0.61760973  0.99519856    -0.89900
H606        H  0.99214739  0.61370280  0.93051958     0.17800
H607        H  0.08013668  0.72521966  0.93514399     0.17800
N608        N  0.03852388  0.72326749  0.87137447    -0.88900
H609        H  0.03788459  0.59007045  0.98500732     0.35200
H610        H  0.00306758  0.61790397  0.00500792     0.40300
H611        H  0.06695483  0.72461875  0.86137427     0.39900
H612        H  0.03115240  0.75006796  0.88276536     0.34800
C613        C  0.32032691  0.75599209  0.13637538    -0.26900
C614        C  0.33835851  0.78170583  0.11138863    -0.15000
C615        C  0.31726317  0.79828048  0.08084280     0.35600
C616        C  0.27952070  0.78559395  0.07365449    -0.26400
C617        C  0.26260981  0.75743744  0.09693610    -0.15600
C618        C  0.28260954  0.74414368  0.12989676     0.36700
N619        N  0.26537881  0.71859542  0.15724297    -0.89900
H620        H  0.33572667  0.74504581  0.16122230     0.17800
H621        H  0.26446694  0.79552315  0.04815903     0.17800
N622        N  0.33491538  0.82607691  0.05598482    -0.88900
H623        H  0.26029645  0.69200807  0.14445597     0.35200
H624        H  0.23911387  0.73037471  0.16627233     0.40300
H625        H  0.33933322  0.85093170  0.07218183     0.39900
H626        H  0.31603517  0.83379638  0.03381110     0.34800
C627        C  0.18887421  0.60034578  0.17992695    -0.26900
C628        C  0.21403976  0.60153501  0.14773579    -0.15000
C629        C  0.25307622  0.59165721  0.15315453     0.35600
C630        C  0.26620430  0.58227061  0.18999287    -0.26400
C631        C  0.24142345  0.58214708  0.22230941    -0.15600
C632        C  0.20226623  0.59057066  0.21698901     0.36700
N633        N  0.17633236  0.59041254  0.24912227    -0.89900
H634        H  0.15870269  0.60779895  0.17663622     0.17800
H635        H  0.29640333  0.57473157  0.19315503     0.17800
N636        N  0.27981156  0.59129880  0.12157987    -0.88900
H637        H  0.15428901  0.57099093  0.24309258     0.35200
H638        H  0.16399723  0.61769259  0.25149708     0.40300
H639        H  0.29169227  0.56380552  0.11941159     0.39900
H640        H  0.30209388  0.61037164  0.12794622     0.34800
C641        C  0.44246157  0.46133686  0.26170170    -0.26900
C642        C  0.43782540  0.47943535  0.29790923    -0.15000
C643        C  0.46696671  0.47445391  0.32573872     0.35600
C644        C  0.49853197  0.45038350  0.31773198    -0.26400
C645        C  0.50202252  0.43037752  0.28243180    -0.15600
C646        C  0.47396213  0.43684925  0.25369889     0.36700
N647        N  0.47668898  0.41785479  0.21696617    -0.89900
H648        H  0.42085707  0.46554853  0.23957617     0.17800
H649        H  0.52000410  0.44653563  0.34008214     0.17800
N650        N  0.46430790  0.49275970  0.36267102    -0.88900
H651        H  0.45451361  0.42687074  0.19867180     0.35200
H652        H  0.47234594  0.38862722  0.22165301     0.40300
H653        H  0.48883573  0.50966702  0.36639098     0.39900
H654        H  0.46456323  0.47152748  0.38389096     0.34800
C655        C  0.84663172  0.02137113  0.46982900    -0.26900
C656        C  0.82569980  0.05522770  0.47700175    -0.15000
C657        C  0.79671135  0.05448422  0.50605592     0.35600
C658        C  0.79014433  0.02085419  0.52745398    -0.26400
C659        C  0.81217114  0.98768381  0.52111569    -0.15600
C660        C  0.84013069  0.98778760  0.49132368     0.36700
N661        N  0.86214480  0.95370577  0.48321217    -0.89900
H662        H  0.86837925  0.02099861  0.44737151     0.17800
H663        H  0.76900546  0.02137566  0.55052410     0.17800
N664        N  0.77443987  0.08802855  0.51491925    -0.88900
H665        H  0.88165532  0.95842452  0.46071821     0.35200
H666        H  0.84290098  0.93282502  0.47353788     0.40300
H667        H  0.77876255  0.09486577  0.54396447     0.39900
H668        H  0.74528855  0.08146157  0.51119630     0.34800
C669        C  0.74613994  0.24347026  0.33417357    -0.26900
C670        C  0.76669032  0.26001104  0.36481008    -0.15000
C671        C  0.75021499  0.29112933  0.38499678     0.35600
C672        C  0.71244126  0.30299796  0.37599814    -0.26400
C673        C  0.69058344  0.28294697  0.34849428    -0.15600
C674        C  0.70802232  0.25354499  0.32691712     0.36700
N675        N  0.68706292  0.23347424  0.29770037    -0.89900
H676        H  0.75860614  0.22002007  0.31777671     0.17800
H677        H  0.69958191  0.32671304  0.39168981     0.17800
N678        N  0.77072478  0.30932296  0.41574867    -0.88900
H679        H  0.68707084  0.20438002  0.30478857     0.35200
H680        H  0.70178378  0.23653907  0.27156359     0.40300
H681        H  0.75415761  0.30708153  0.44085044     0.39900
H682        H  0.77321363  0.33838645  0.40910244     0.34800
C683        C  0.53003032  0.94892230  0.13935653    -0.26900
C684        C  0.52754355  0.92899005  0.17469827    -0.15000
C685        C  0.55703436  0.93490246  0.20218575     0.35600
C686        C  0.58830357  0.95863212  0.19320046    -0.26400
C687        C  0.59179144  0.97696153  0.15709150    -0.15600
C688        C  0.56141378  0.97241828  0.13024409     0.36700
N689        N  0.56178934  0.99017813  0.09304859    -0.89900
H690        H  0.50772651  0.94552682  0.11777613     0.17800
H691        H  0.61053906  0.96213929  0.21481989     0.17800
N692        N  0.55702051  0.91637411  0.23897256    -0.88900
H693        H  0.58662607  0.98146251  0.07825663     0.35200
H694        H  0.56199842  0.01989081  0.09667175     0.40300
H695        H  0.55699769  0.88677472  0.23464223     0.39900
H696        H  0.53209807  0.92450764  0.25397151     0.34800
C697        C  0.72799421  0.89107645  0.00435563    -0.26900
C698        C  0.69884697  0.89255895  0.97595305    -0.15000
C699        C  0.67909383  0.92762610  0.97061840     0.35600
C700        C  0.68672927  0.95892111  0.99497051    -0.26400
C701        C  0.71481736  0.95700988  0.02413012    -0.15600
C702        C  0.73653411  0.92291993  0.02803383     0.36700
N703        N  0.76594512  0.92001826  0.05704841    -0.89900
H704        H  0.74413470  0.86478726  0.00848053     0.17800
H705        H  0.67016336  0.98503147  0.99117072     0.17800
N706        N  0.65130847  0.93195459  0.94041628    -0.88900
H707        H  0.78826258  0.93845341  0.04917482     0.35200
H708        H  0.77791496  0.89248371  0.05732329     0.40300
H709        H  0.66032419  0.95429457  0.92255770     0.39900
H710        H  0.62496972  0.93988551  0.95287024     0.34800
C711        C  0.82244199  0.07121130  0.24458668    -0.26900
C712        C  0.79134643  0.09185283  0.22888242    -0.15000
C713        C  0.77541199  0.12264172  0.25024071     0.35600
C714        C  0.78778252  0.12957910  0.28799180    -0.26400
C715        C  0.81710624  0.10751316  0.30459918    -0.15600
C716        C  0.83584066  0.07913119  0.28218380     0.36700
N717        N  0.86749191  0.05773703  0.29812595    -0.89900
H718        H  0.83463650  0.04734638  0.22860622     0.17800
H719        H  0.77457539  0.15265001  0.30433358     0.17800
N720        N  0.74594262  0.14648892  0.23386654    -0.88900
H721        H  0.85683145  0.04175986  0.32123209     0.35200
H722        H  0.87830731  0.03821385  0.27787081     0.40300
H723        H  0.72151022  0.14504845  0.25152543     0.39900
H724        H  0.75575116  0.17475435  0.23416734     0.34800
C725        C  0.62552934  0.14886619  0.20768498    -0.26900
C726        C  0.63637184  0.14569901  0.16895087    -0.15000
C727        C  0.63625346  0.17929862  0.14570769     0.35600
C728        C  0.62773055  0.21523720  0.16268934    -0.26400
C729        C  0.61947820  0.21819830  0.20212761    -0.15600
C730        C  0.61717923  0.18425312  0.22434992     0.36700
N731        N  0.60520277  0.18529466  0.26397227    -0.89900
H732        H  0.62421644  0.12368619  0.22583381     0.17800
H733        H  0.62840818  0.24099505  0.14536094     0.17800
N734        N  0.64553412  0.17717456  0.10533585    -0.88900
H735        H  0.62699349  0.17291001  0.28067615     0.35200
H736        H  0.58052270  0.16844968  0.26686706     0.40300
H737        H  0.64559465  0.20449008  0.09302831     0.39900
H738        H  0.62339609  0.16205646  0.09178475     0.34800
C739        C  0.29627916  0.39909443  0.46396907    -0.26900
C740        C  0.33174387  0.39511662  0.48361906    -0.15000
C741        C  0.35954663  0.42407012  0.47894493     0.35600
C742        C  0.35226292  0.45483416  0.45391304    -0.26400
C743        C  0.31749236  0.45809624  0.43298878    -0.15600
C744        C  0.28888897  0.42996292  0.43873121     0.36700
N745        N  0.25284933  0.43207750  0.41839691    -0.89900
H746        H  0.27423146  0.37754263  0.46767770     0.17800
H747        H  0.37459899  0.47616515  0.45051338     0.17800
N748        N  0.39565204  0.42223793  0.49888890    -0.88900
H749        H  0.23453071  0.40994350  0.42693212     0.35200
H750        H  0.25869524  0.42756437  0.38914249     0.40300
H751        H  0.39835328  0.44708587  0.51553203     0.39900
H752        H  0.41780116  0.42206958  0.47838117     0.34800
C753        C  0.49516083  0.25948531  0.40189611    -0.26900
C754        C  0.51693076  0.29348705  0.39970678    -0.15000
C755        C  0.51422046  0.31994259  0.43042960     0.35600
C756        C  0.49000788  0.31221971  0.46190324    -0.26400
C757        C  0.46765810  0.27867312  0.46362236    -0.15600
C758        C  0.47055628  0.25204455  0.43321005     0.36700
N759        N  0.44745866  0.21815661  0.43305606    -0.89900
H760        H  0.49659091  0.23856010  0.37882204     0.17800
H761        H  0.48818131  0.33323756  0.48488668     0.17800
N762        N  0.53524570  0.35514027  0.42966955    -0.88900
H763        H  0.46592474  0.19446487  0.43134839     0.35200
H764        H  0.43044561  0.21852036  0.40819547     0.40300
H765        H  0.55275847  0.35619053  0.45416471     0.39900
H766        H  0.51544230  0.37775833  0.43134371     0.34800
C767        C  0.17623373  0.49665149  0.95053868    -0.26900
C768        C  0.21124902  0.49223676  0.93025027    -0.15000
C769        C  0.23934721  0.52110273  0.93395840     0.35600
C770        C  0.23166543  0.55363333  0.95683052    -0.26400
C771        C  0.19625941  0.55839730  0.97639043    -0.15600
C772        C  0.16823194  0.52930491  0.97303582     0.36700
N773        N  0.13134266  0.53316737  0.99171514    -0.89900
H774        H  0.15428220  0.47481333  0.94814828     0.17800
H775        H  0.25374146  0.57537128  0.95915125     0.17800
N776        N  0.27540393  0.51816924  0.91396145    -0.88900
H777        H  0.11446317  0.50884800  0.98713251     0.35200
H778        H  0.11679757  0.55595627  0.97859899     0.40300
H779        H  0.29749368  0.51884162  0.93443391     0.39900
H780        H  0.27825637  0.54235622  0.89651511     0.34800
C781        C  0.06309585  0.52587584  0.75971038    -0.26900
C782        C  0.03074059  0.52355660  0.78381619    -0.15000
C783        C  0.03072392  0.49574015  0.81345044     0.35600
C784        C  0.06304031  0.47183473  0.81911046    -0.26400
C785        C  0.09615475  0.47492788  0.79594506    -0.15600
C786        C  0.09570993  0.50236323  0.76560399     0.36700
N787        N  0.12856655  0.50734480  0.74103402    -0.89900
H788        H  0.06386178  0.54726481  0.73712415     0.17800
H789        H  0.06214999  0.45090081  0.84209575     0.17800
N790        N  0.99772822  0.49149718  0.83796398    -0.88900
H791        H  0.13777297  0.53571573  0.74353817     0.35200
H792        H  0.11988727  0.50279709  0.71253556     0.40300
H793        H  0.00653706  0.49580016  0.86646504     0.39900
H794        H  0.98792053  0.46333963  0.83542885     0.34800
C795        C  0.29545135  0.31556498  0.67382986    -0.26900
C796        C  0.32197112  0.33983593  0.65604379    -0.15000
C797        C  0.33943131  0.36938390  0.67762874     0.35600
C798        C  0.32628099  0.37687808  0.71534267    -0.26400
C799        C  0.29719218  0.35444552  0.73200498    -0.15600
C800        C  0.28346759  0.32197906  0.71164242     0.36700
N801        N  0.25733042  0.29500132  0.72852716    -0.89900
H802        H  0.28393099  0.29131843  0.65814575     0.17800
H803        H  0.33688398  0.40176856  0.73067036     0.17800
N804        N  0.36882891  0.39283245  0.66057428    -0.88900
H805        H  0.23017797  0.30735946  0.73220651     0.35200
H806        H  0.26818721  0.28661765  0.75539429     0.40300
H807        H  0.39333502  0.37568391  0.65669460     0.39900
H808        H  0.37695943  0.41458261  0.67960521     0.34800
C809        C  0.97104481  0.19691763  0.52225130    -0.26900
C810        C  0.96745095  0.16821290  0.49420704    -0.15000
C811        C  0.99022992  0.13464059  0.49764795     0.35600
C812        C  0.01422997  0.12960004  0.52978062    -0.26400
C813        C  0.01642184  0.15747267  0.55890111    -0.20400
C814        C  0.99512495  0.19195202  0.55437092     0.36700
N815        N  0.99757394  0.22214901  0.58228369    -0.89900
H816        H  0.95412106  0.22298191  0.52001967     0.17800
H817        H  0.03072486  0.10328515  0.53212561     0.17800
N818        N  0.98919015  0.10541749  0.46858805    -0.88900
H819        H  0.96986993  0.22749367  0.59303731     0.35200
H820        H  0.00706723  0.24684871  0.56824926     0.40300
H821        H  0.98061509  0.07984747  0.48160105     0.39900
H822        H  0.01715090  0.10157849  0.45786967     0.34800
C823        C  0.98934721  0.00836541  0.63261784    -0.26900
C824        C  0.99822946  0.02036310  0.67059057    -0.15000
C825        C  0.97506377  0.00673615  0.70101984     0.35600
C826        C  0.94342717  0.98283650  0.69294283    -0.26400
C827        C  0.93416652  0.97188118  0.65488999    -0.15600
C828        C  0.95773518  0.98472104  0.62459061     0.36700
N829        N  0.94888222  0.97517925  0.58538652    -0.89900
H830        H  0.00643912  0.01812414  0.60840833     0.17800
H831        H  0.92587760  0.97288944  0.71675529     0.17800
N832        N  0.98302538  0.01735984  0.74008880    -0.88900
H833        H  0.97282542  0.96121648  0.57342590     0.35200
H834        H  0.94450615  0.00065867  0.57019402     0.40300
H835        H  0.98754943  0.99230171  0.75592567     0.39900
H836        H  0.95861448  0.03115595  0.75127171     0.34800
C837        C  0.14804358  0.26768675  0.80756720    -0.26900
C838        C  0.13862502  0.30105482  0.78636378    -0.15000
C839        C  0.11658134  0.29718877  0.75261107     0.35600
C840        C  0.10613967  0.26075631  0.73969663    -0.26400
C841        C  0.11724816  0.22734117  0.75946348    -0.15600
C842        C  0.13768434  0.23075209  0.79426308     0.36700
N843        N  0.14892449  0.19701103  0.81509578    -0.89900
H844        H  0.16488229  0.27027313  0.83372490     0.17800
H845        H  0.08983826  0.25852331  0.71312379     0.17800
N846        N  0.10468026  0.33017647  0.73114622    -0.88900
H847        H  0.16396913  0.20449551  0.84007957     0.35200
H848        H  0.16817491  0.18154044  0.79772932     0.40300
H849        H  0.11555155  0.32755941  0.70311207     0.39900
H850        H  0.07456437  0.33018136  0.72960415     0.34800
C851        C  0.20994645  0.14786776  0.58021272    -0.26900
C852        C  0.18875389  0.16649217  0.60945190    -0.15000
C853        C  0.20658769  0.19489135  0.63172685     0.35600
C854        C  0.24445531  0.20539552  0.62370855    -0.26400
C855        C  0.26468407  0.18981562  0.59216644    -0.15600
C856        C  0.24769000  0.15980441  0.57076416     0.36700
N857        N  0.26758444  0.14335797  0.53828258    -0.89900
H858        H  0.19649463  0.12509138  0.56384920     0.17800
H859        H  0.25715014  0.22815488  0.64068731     0.17800
N860        N  0.18624900  0.21335653  0.66262544    -0.88900
H861        H  0.25043545  0.12274200  0.52480745     0.35200
H862        H  0.29185382  0.12896450  0.54883392     0.40300
H863        H  0.18550440  0.24276385  0.65707223     0.39900
H864        H  0.20178252  0.20903541  0.68807898     0.34800
C865        C  0.33366116  0.93254499  0.20623100    -0.26900
C866        C  0.35236220  0.90467115  0.22902901    -0.15000
C867        C  0.33649447  0.89703997  0.26617593     0.35600
C868        C  0.30524661  0.91872949  0.28005457    -0.26400
C869        C  0.28823814  0.94812644  0.25820561    -0.15600
C870        C  0.30203375  0.95410547  0.22034781     0.36700
N871        N  0.28518605  0.98313368  0.19655652    -0.89900
H872        H  0.34421283  0.93854359  0.17746028     0.17800
H873        H  0.29490705  0.91318558  0.30902518     0.17800
N874        N  0.35121104  0.86765828  0.29097096    -0.88900
H875        H  0.27528045  0.97007763  0.17128488     0.35200
H876        H  0.30677747  0.00249007  0.18897354     0.40300
H877        H  0.37958112  0.87414816  0.29863959     0.39900
H878        H  0.35022965  0.84142244  0.27645615     0.34800
C879        C  0.29723481  0.14783514  0.40355563    -0.26900
C880        C  0.25891885  0.13673364  0.41121349    -0.15000
C881        C  0.23643375  0.16076838  0.43539073     0.35600
C882        C  0.25343477  0.19265152  0.45382849    -0.26400
C883        C  0.29261228  0.20177057  0.44834577    -0.15600
C884        C  0.31394843  0.17989048  0.42134624     0.36700
N885        N  0.35299068  0.18966453  0.41217024    -0.89900
H886        H  0.31496993  0.13122494  0.38387970     0.17800
H887        H  0.23621871  0.20915907  0.47404829     0.17800
N888        N  0.19646966  0.15288311  0.44181207    -0.88900
H889        H  0.35474661  0.19455308  0.38248334     0.35200
H890        H  0.37059708  0.16616824  0.41868000     0.40300
H891        H  0.18054261  0.17678273  0.43294933     0.39900
H892        H  0.19219573  0.14942220  0.47145425     0.34800
C893        C  0.99366780  0.21902094  0.27082797    -0.26900
C894        C  0.98697122  0.25746873  0.26038638    -0.15000
C895        C  0.95867530  0.27829569  0.28117792     0.35600
C896        C  0.93843983  0.26084367  0.31153568    -0.26400
C897        C  0.94598015  0.22281216  0.32298269    -0.15600
C898        C  0.97398493  0.20180221  0.30195690     0.36700
N899        N  0.98361387  0.16337843  0.31267708    -0.89900
H900        H  0.01578113  0.20259138  0.25603154     0.17800
H901        H  0.91703497  0.27783885  0.32672658     0.17800
N902        N  0.95071621  0.31758561  0.27223110    -0.88900
H903        H  0.01303265  0.16242768  0.31923040     0.35200
H904        H  0.97892986  0.14566732  0.28880604     0.40300
H905        H  0.95600349  0.33398209  0.29692679     0.39900
H906        H  0.92143483  0.32015409  0.26551891     0.34800
C907        C  0.14549067  0.18022629  0.31263805    -0.26900
C908        C  0.13496726  0.14773240  0.29054993    -0.15000
C909        C  0.11268547  0.15349063  0.25695565     0.35600
C910        C  0.10399263  0.19068064  0.24505591    -0.26400
C911        C  0.11675359  0.22305458  0.26553715    -0.15600
C912        C  0.13655731  0.21786080  0.30043808     0.36700
N913        N  0.14931318  0.25050620  0.32211380    -0.89900
H914        H  0.16217099  0.17639345  0.33875023     0.17800
H915        H  0.08795415  0.19437104  0.21848951     0.17800
N916        N  0.09819725  0.12240607  0.23425959    -0.88900
H917        H  0.16427022  0.24170199  0.34674571     0.35200
H918        H  0.12475533  0.26510776  0.33180119     0.40300
H919        H  0.08265602  0.10405311  0.25223003     0.39900
H920        H  0.12130981  0.10756463  0.22184145     0.34800
C921        C  0.19033970  0.43905837  0.20736186    -0.26900
C922        C  0.17662477  0.40681559  0.22741253    -0.15000
C923        C  0.19798142  0.39424520  0.26014815     0.35600
C924        C  0.23017249  0.41490208  0.27281680    -0.26400
C925        C  0.24260331  0.44816886  0.25402732    -0.15600
C926        C  0.22291304  0.45977695  0.22018989     0.36700
N927        N  0.23446456  0.49384182  0.20020408    -0.89900
H928        H  0.17491688  0.44892286  0.18209849     0.17800
H929        H  0.24485161  0.40552882  0.29873931     0.17800
N930        N  0.18800449  0.36064177  0.28152490    -0.88900
H931        H  0.21571962  0.49977238  0.17738568     0.35200
H932        H  0.26149323  0.48847375  0.18786514     0.40300
H933        H  0.18687495  0.33727279  0.26267483     0.39900
H934        H  0.16121128  0.36479884  0.29475720     0.34800
C935        C  0.23861089  0.29417196  0.93771964    -0.26900
C936        C  0.26177862  0.31354806  0.91064188    -0.15000
C937        C  0.29890647  0.29808821  0.90275894     0.35600
C938        C  0.31284194  0.26644452  0.92365464    -0.26400
C939        C  0.29074860  0.24856362  0.95240836    -0.15600
C940        C  0.25238532  0.26175775  0.95824369     0.36700
N941        N  0.22795372  0.24338178  0.98606933    -0.89900
H942        H  0.20972244  0.30467061  0.94344484     0.17800
H943        H  0.34197497  0.25652837  0.91796069     0.17800
N944        N  0.32310960  0.31443737  0.87365729    -0.88900
H945        H  0.22219837  0.21583146  0.97578328     0.35200
H946        H  0.20134122  0.25744879  0.98805946     0.40300
H947        H  0.32951598  0.29315066  0.85335010     0.39900
H948        H  0.34893187  0.32290314  0.88660009     0.34800
C949        C  0.24891613  0.24617646  0.12989294    -0.26900
C950        C  0.26792928  0.26085754  0.09731576    -0.15000
C951        C  0.24967249  0.28978331  0.07542763     0.35600
C952        C  0.21171382  0.30115977  0.08509033    -0.26400
C953        C  0.19161186  0.28325134  0.11530582    -0.15600
C954        C  0.21089384  0.25632534  0.13841414     0.36700
N955        N  0.19187209  0.23895406  0.17058603    -0.89900
H956        H  0.26266327  0.22426581  0.14727801     0.17800
H957        H  0.19722485  0.32287305  0.06810244     0.17800
N958        N  0.26853934  0.30555671  0.04217676    -0.88900
H959        H  0.20787520  0.24482798  0.19541848     0.35200
H960        H  0.19196103  0.20929572  0.16635851     0.40300
H961        H  0.29252866  0.32075607  0.05189076     0.39900
H962        H  0.25054538  0.32535633  0.02838764     0.34800
C963        C  0.32715832  0.08115625  0.22275924    -0.26900
C964        C  0.29202332  0.09740663  0.23480026    -0.15000
C965        C  0.27358989  0.12448341  0.21051179     0.35600
C966        C  0.28774079  0.13093173  0.17335877    -0.26400
C967        C  0.32093068  0.11219866  0.16008877    -0.15600
C968        C  0.34190152  0.08861432  0.18567345     0.36700
N969        N  0.37703440  0.07060564  0.17343520    -0.89900
H970        H  0.34176031  0.06045662  0.24089234     0.17800
H971        H  0.27250217  0.15070949  0.15468585     0.17800
N972        N  0.23948957  0.14447644  0.22289700    -0.88900
H973        H  0.37362579  0.04097240  0.17578060     0.35200
H974        H  0.39886130  0.07887351  0.19244232     0.40300
H975        H  0.21720244  0.13802310  0.20369234     0.39900
H976        H  0.24476143  0.17388114  0.22123342     0.34800
C977        C  0.45856032  0.27741465  0.18708806    -0.26900
C978        C  0.48548428  0.25442291  0.20671315    -0.15000
C979        C  0.48883873  0.21545424  0.19525103     0.35600
C980        C  0.46845266  0.20190251  0.16305685    -0.26400
C981        C  0.44414401  0.22588244  0.14128283    -0.15600
C982        C  0.43800774  0.26391027  0.15505854     0.36700
N983        N  0.41149176  0.29001526  0.13730508    -0.89900
H984        H  0.45440932  0.30700343  0.19571416     0.17800
H985        H  0.47268527  0.17233486  0.15446000     0.17800
N986        N  0.51385636  0.18904619  0.21441644    -0.88900
H987        H  0.38396143  0.27790840  0.13741049     0.35200
H988        H  0.42041489  0.29536211  0.10904898     0.40300
H989        H  0.50626962  0.18806367  0.24367695     0.39900
H990        H  0.54192692  0.19878542  0.21152804     0.34800
C991        C  0.80516800  0.49464654  0.74351143    -0.26900
C992        C  0.79052412  0.50337486  0.70672200    -0.15000
C993        C  0.80668091  0.53440337  0.68645694     0.35600
C994        C  0.83827168  0.55425773  0.70186078    -0.26400
C995        C  0.85468903  0.54413422  0.73757974    -0.15600
C996        C  0.83691953  0.51456456  0.75902899     0.36700
N997        N  0.85150070  0.50375950  0.79607240    -0.89900
H998        H  0.79336304  0.47079168  0.75952915     0.17800
H999        H  0.85029045  0.57755577  0.68520885     0.17800
N1000       N  0.79136414  0.54569548  0.64983400    -0.88900
H1001       H  0.85920223  0.47478448  0.79498117     0.35200
H1002       H  0.82920921  0.50687995  0.81617919     0.40300
H1003       H  0.81350610  0.54381080  0.62939643     0.39900
H1004       H  0.78273026  0.57435388  0.65181358     0.34800
C1005       C  0.73785051  0.29117496  0.53137840    -0.26900
C1006       C  0.76268465  0.31660184  0.55082989    -0.15000
C1007       C  0.80271841  0.30807653  0.55052738     0.35600
C1008       C  0.81678303  0.27590392  0.53060966    -0.26400
C1009       C  0.79238772  0.25141201  0.50972937    -0.15600
C1010       C  0.75223214  0.25893549  0.51096249     0.36700
N1011       N  0.72587549  0.23453659  0.49094388    -0.89900
H1012       H  0.70703778  0.29644325  0.53161672     0.17800
H1013       H  0.84768338  0.27112542  0.53041053     0.17800
N1014       N  0.82984162  0.33245834  0.56960268    -0.88900
H1015       H  0.71063043  0.25117924  0.47104201     0.35200
H1016       H  0.70616792  0.22383972  0.51101367     0.40300
H1017       H  0.84955865  0.34232696  0.54909402     0.39900
H1018       H  0.84493844  0.31607871  0.58983002     0.34800
C1019       C  0.73960421  0.15368497  0.02084149    -0.26900
C1020       C  0.76211061  0.13431172  0.04845771    -0.15000
C1021       C  0.79867404  0.14987983  0.05781010     0.35600
C1022       C  0.81265878  0.18202480  0.03799265    -0.26400
C1023       C  0.79132224  0.19981437  0.00861503    -0.15600
C1024       C  0.75375873  0.18600895  0.00098250     0.36700
N1025       N  0.73036686  0.20346008  0.97188793    -0.89900
H1026       H  0.71114906  0.14315204  0.01370369     0.17800
H1027       H  0.84134155  0.19222339  0.04478084     0.17800
N1028       N  0.82234021  0.13298968  0.08708520    -0.88900
H1029       H  0.70474548  0.21280801  0.98484501     0.35200
H1030       H  0.72330096  0.18241558  0.95164876     0.40300
H1031       H  0.82784524  0.15380764  0.10805975     0.39900
H1032       H  0.84863462  0.12498219  0.07456686     0.34800
C1033       C  0.96696573  0.25124425  0.03113075    -0.26900
C1034       C  0.96964100  0.27469401  0.99847584    -0.15000
C1035       C  0.99689525  0.30479487  0.99879876     0.35600
C1036       C  0.01982265  0.31147135  0.03155487    -0.26400
C1037       C  0.01645192  0.28887632  0.06483484    -0.15600
C1038       C  0.98964906  0.25813930  0.06419038     0.36700
N1039       N  0.98444526  0.23423042  0.09728762    -0.89900
H1040       H  0.94589828  0.22842568  0.03175645     0.17800
H1041       H  0.04027865  0.33481522  0.03081970     0.17800
N1042       N  0.00150169  0.32887806  0.96572965    -0.88900
H1043       H  0.99000961  0.20590954  0.08909762     0.35200
H1044       H  0.95558272  0.23617822  0.10590320     0.40300
H1045       H  0.03021979  0.32701255  0.95663826     0.39900
H1046       H  0.99605580  0.35715170  0.97419021     0.34800
C1047       C  0.84562052  0.36757521  0.78277374    -0.26900
C1048       C  0.82729801  0.33824489  0.80343283    -0.15000
C1049       C  0.79991384  0.31527149  0.78466595     0.35600
C1050       C  0.78849724  0.32412684  0.74717149    -0.26400
C1051       C  0.80277069  0.35656829  0.72827010    -0.15600
C1052       C  0.83336387  0.37722612  0.74521241     0.36700
N1053       N  0.84991008  0.40935170  0.72549822    -0.89900
H1054       H  0.86810432  0.38407219  0.79661852     0.17800
H1055       H  0.76594233  0.30728485  0.73388623     0.17800
N1056       N  0.78320898  0.28305789  0.80374213    -0.88900
H1057       H  0.86375435  0.39881442  0.70083974     0.35200
H1058       H  0.87126968  0.42207368  0.74242707     0.40300
H1059       H  0.78922542  0.25857529  0.78735582     0.39900
H1060       H  0.75330461  0.28690952  0.80425716     0.34800
C1061       C  0.99495025  0.22938709  0.76956043    -0.26900
C1062       C  0.98486851  0.19322279  0.75481018    -0.15000
C1063       C  0.95388782  0.17366947  0.77231379     0.35600
C1064       C  0.93524943  0.18935820  0.80488613    -0.26400
C1065       C  0.94676424  0.22449861  0.82121328    -0.15600
C1066       C  0.97653797  0.24501021  0.80240382     0.36700
N1067       N  0.98921629  0.28120206  0.81701880    -0.89900
H1068       H  0.01884737  0.24484901  0.75691204     0.17800
H1069       H  0.91184293  0.17337956  0.81776571     0.17800
N1070       N  0.94138796  0.13752296  0.75739151    -0.88900
H1071       H  0.98598576  0.30152605  0.79515107     0.35200
H1072       H  0.01860512  0.27894494  0.82341175     0.40300
H1073       H  0.91223065  0.14000501  0.75008452     0.39900
H1074       H  0.94378860  0.11721333  0.77936753     0.34800
C1075       C  0.47178925  0.24728298  0.65948843    -0.26900
C1076       C  0.44567734  0.22446029  0.63846916    -0.15000
C1077       C  0.43934054  0.18654272  0.65162230     0.35600
C1078       C  0.46002347  0.17205714  0.68327252    -0.26400
C1079       C  0.48730376  0.19415512  0.70322128    -0.15600
C1080       C  0.49242116  0.23261936  0.69150953     0.36700
N1081       N  0.51930516  0.25671717  0.71120547    -0.89900
H1082       H  0.47682033  0.27659265  0.65073391     0.17800
H1083       H  0.45522856  0.14257871  0.69164222     0.17800
N1084       N  0.41215650  0.16202899  0.63282381    -0.88900
H1085       H  0.50422135  0.28051477  0.72179798     0.35200
H1086       H  0.53948678  0.26650746  0.69115207     0.40300
H1087       H  0.39163609  0.15354299  0.65317910     0.39900
H1088       H  0.42680066  0.13757912  0.62315898     0.34800
C1089       C  0.48179883  0.17250803  0.89548466    -0.26900
C1090       C  0.51365175  0.14748707  0.89894033    -0.15000
C1091       C  0.52179949  0.13203438  0.93591607     0.35600
C1092       C  0.49804360  0.14149552  0.96751748    -0.26400
C1093       C  0.46658378  0.16687940  0.96378755    -0.15600
C1094       C  0.45862079  0.18239061  0.92708205     0.36700
N1095       N  0.42619960  0.20707425  0.92049377    -0.89900
H1096       H  0.47448407  0.18469354  0.86772241     0.17800
H1097       H  0.50426426  0.12885306  0.99535647     0.17800
N1098       N  0.55415313  0.10731922  0.94269608    -0.88900
H1099       H  0.42944029  0.23182592  0.93712968     0.35200
H1100       H  0.40113194  0.19288995  0.92906251     0.40300
H1101       H  0.57936409  0.12162083  0.93461840     0.39900
H1102       H  0.55110568  0.08263984  0.92596782     0.34800
C1103       C  0.68933982  0.20299734  0.86566939    -0.26900
C1104       C  0.68559265  0.16392538  0.85767020    -0.15000
C1105       C  0.71867569  0.14004865  0.86168348     0.35600
C1106       C  0.75486093  0.15612717  0.87090745    -0.26400
C1107       C  0.75874781  0.19567783  0.87633661    -0.15600
C1108       C  0.72498344  0.21888692  0.87530216     0.36700
N1109       N  0.72635493  0.25876724  0.88516117    -0.89900
H1110       H  0.66448537  0.22183697  0.86392683     0.17800
H1111       H  0.78000538  0.13772982  0.87301460     0.17800
N1112       N  0.71590547  0.09950390  0.85625562    -0.88900
H1113       H  0.70817074  0.26340349  0.90882120     0.35200
H1114       H  0.71547629  0.27450484  0.86196299     0.40300
H1115       H  0.72499769  0.08615393  0.88164622     0.39900
H1116       H  0.73487810  0.09154021  0.83415278     0.34800
C1117       C  0.62602333  0.27585055  0.65665883    -0.26900
C1118       C  0.64467595  0.30197076  0.68146820    -0.15000
C1119       C  0.65541272  0.28975029  0.71852971     0.35600
C1120       C  0.64860567  0.25213258  0.72965065    -0.26400
C1121       C  0.62845520  0.22618497  0.70592638    -0.15600
C1122       C  0.61698304  0.23841345  0.66893319     0.36700
N1123       N  0.59535447  0.21360759  0.64424793    -0.89900
H1124       H  0.61760439  0.28478843  0.62796808     0.17800
H1125       H  0.65790675  0.24397835  0.75831559     0.17800
N1126       N  0.67341896  0.31534475  0.74531417    -0.88900
H1127       H  0.61067449  0.21026349  0.61845855     0.35200
H1128       H  0.56914816  0.22707275  0.63785190     0.40300
H1129       H  0.69982115  0.30342799  0.75358386     0.39900
H1130       H  0.65593881  0.31716968  0.76986135     0.34800
C1131       C  0.72252764  0.02952311  0.67579589    -0.26900
C1132       C  0.73989413  0.00002226  0.69719506    -0.15000
C1133       C  0.72638705  0.99322938  0.73503272     0.35600
C1134       C  0.69495138  0.01443232  0.74979172    -0.26400
C1135       C  0.67622848  0.04266322  0.72764522    -0.15600
C1136       C  0.69136500  0.05092951  0.69054336     0.36700
N1137       N  0.67514948  0.08078777  0.66729138    -0.89900
H1138       H  0.73250446  0.03542834  0.64677298     0.17800
H1139       H  0.68455665  0.00787809  0.77849454     0.17800
N1140       N  0.74326503  0.96364610  0.75811466    -0.88900
H1141       H  0.66589449  0.06873460  0.64129369     0.35200
H1142       H  0.69694164  0.10044166  0.66105597     0.40300
H1143       H  0.72160717  0.94433600  0.76562335     0.39900
H1144       H  0.75350581  0.97615624  0.78351224     0.34800
C1145       C  0.09020730  0.75859573  0.15328359    -0.26900
C1146       C  0.08279682  0.72119722  0.14000702    -0.15000
C1147       C  0.05571786  0.69893934  0.16063961     0.35600
C1148       C  0.03536171  0.71506832  0.19207599    -0.26400
C1149       C  0.04115144  0.75330554  0.20358438    -0.15600
C1150       C  0.07019673  0.77464521  0.18477433     0.36700
N1151       N  0.07895838  0.81292391  0.19728725    -0.89900
H1152       H  0.11162300  0.77588149  0.13879074     0.17800
H1153       H  0.01333942  0.69812259  0.20611198     0.17800
N1154       N  0.04799157  0.66024646  0.14943878    -0.88900
H1155       H  0.10067653  0.82488801  0.18026727     0.35200
H1156       H  0.08993818  0.81110679  0.22530200     0.40300
H1157       H  0.01861440  0.65807516  0.14306844     0.39900
H1158       H  0.05381736  0.64255331  0.17302792     0.34800
C1159       C  0.03264565  0.94540270  0.32003255    -0.26900
C1160       C  0.02827299  0.92668876  0.28418069    -0.15000
C1161       C  0.05600739  0.93380334  0.25525584     0.35600
C1162       C  0.08781220  0.95769720  0.26320027    -0.26400
C1163       C  0.09272545  0.97539572  0.29957340    -0.15600
C1164       C  0.06403930  0.96955577  0.32782330     0.36700
N1165       N  0.06674463  0.98752589  0.36488247    -0.89900
H1166       H  0.01165530  0.94102495  0.34276293     0.17800
H1167       H  0.10888093  0.96224971  0.24058003     0.17800
N1168       N  0.05260343  0.91635625  0.21801281    -0.88900
H1169       H  0.06712966  0.96611352  0.38589980     0.35200
H1170       H  0.04195528  0.00419574  0.36907869     0.40300
H1171       H  0.07748069  0.90007818  0.21289832     0.39900
H1172       H  0.05150026  0.93814967  0.19741614     0.34800
C1173       C  0.79959589  0.95456422  0.23870251    -0.26900
C1174       C  0.78615259  0.94586247  0.20144451    -0.15000
C1175       C  0.80353136  0.91508695  0.18122670     0.35600
C1176       C  0.83560920  0.89604804  0.19711956    -0.26400
C1177       C  0.85086800  0.90630676  0.23331218    -0.15600
C1178       C  0.83145762  0.93504085  0.25481094     0.36700
N1179       N  0.84437969  0.94526946  0.29262551    -0.89900
H1180       H  0.78669566  0.97805898  0.25469556     0.17800
H1181       H  0.84900376  0.87317874  0.18066107     0.17800
N1182       N  0.78904603  0.90374055  0.14410622    -0.88900
H1183       H  0.82149619  0.94121369  0.31184555     0.35200
H1184       H  0.85116357  0.97436884  0.29256583     0.40300
H1185       H  0.76098456  0.89364137  0.14811065     0.39900
H1186       H  0.80515252  0.88093891  0.13281227     0.34800
C1187       C  0.73452115  0.79268363  0.55953426    -0.26900
C1188       C  0.76888227  0.81009707  0.54670724    -0.15000
C1189       C  0.78889068  0.79278898  0.51557146     0.35600
C1190       C  0.77270748  0.76130214  0.49603449    -0.26400
C1191       C  0.73678647  0.74621088  0.50690819    -0.15600
C1192       C  0.71852635  0.76109463  0.54008853     0.36700
N1193       N  0.68349901  0.74438628  0.55397335    -0.89900
H1194       H  0.71933941  0.80406432  0.58440807     0.17800
H1195       H  0.78736354  0.75012461  0.47074004     0.17800
N1196       N  0.82506369  0.80769640  0.50269617    -0.88900
H1197       H  0.66220092  0.76566261  0.55453741     0.35200
H1198       H  0.68812928  0.73525409  0.58229965     0.40300
H1199       H  0.82213126  0.81562267  0.47379531     0.39900
H1200       H  0.84557420  0.78574148  0.50421077     0.34800
C1201       C  0.82217732  0.74845423  0.32392996    -0.26900
C1202       C  0.83570610  0.78034011  0.34414811    -0.15000
C1203       C  0.81061103  0.80006655  0.36955745     0.35600
C1204       C  0.77344130  0.78534394  0.37665368    -0.26400
C1205       C  0.76101043  0.75161103  0.35844164    -0.15600
C1206       C  0.78502444  0.73442712  0.33015589     0.36700
N1207       N  0.77228659  0.70173592  0.30861099    -0.89900
H1208       H  0.84068690  0.73415408  0.30318217     0.17800
H1209       H  0.75538898  0.79861956  0.39848721     0.17800
N1210       N  0.82354248  0.83388262  0.38925777    -0.88900
H1211       H  0.79145604  0.67911750  0.31376166     0.35200
H1212       H  0.77370924  0.70842262  0.27926409     0.40300
H1213       H  0.84642525  0.82590760  0.40717636     0.39900
H1214       H  0.80178353  0.84472930  0.40716239     0.34800
C1215       C  0.58918389  0.75750985  0.30664864    -0.26900
C1216       C  0.58356023  0.71880902  0.31650185    -0.15000
C1217       C  0.56096544  0.69621766  0.29124215     0.35600
C1218       C  0.54168191  0.71342123  0.25968291    -0.26400
C1219       C  0.54504787  0.75289099  0.25191834    -0.15600
C1220       C  0.57089958  0.77436415  0.27474339     0.36700
N1221       N  0.57849227  0.81369886  0.26603856    -0.89900
H1222       H  0.60769577  0.77541824  0.32411608     0.17800
H1223       H  0.52265525  0.69599862  0.24226034     0.17800
N1224       N  0.55722433  0.65589583  0.29741836    -0.88900
H1225       H  0.60812251  0.81664635  0.26132875     0.35200
H1226       H  0.57100949  0.83022604  0.29012201     0.40300
H1227       H  0.56740804  0.64175672  0.27278149     0.39900
H1228       H  0.52790725  0.64967017  0.30044757     0.34800
C1229       C  0.67216630  0.49694593  0.51406068    -0.26900
C1230       C  0.70807877  0.49236540  0.53261034    -0.15000
C1231       C  0.73686191  0.52002536  0.52575188     0.35600
C1232       C  0.72927234  0.55101749  0.50089808    -0.26400
C1233       C  0.69326129  0.55552915  0.48244723    -0.15600
C1234       C  0.66453543  0.52796501  0.48943507     0.36700
N1235       N  0.62712324  0.53162473  0.47236307    -0.89900
H1236       H  0.64930882  0.47646593  0.51892903     0.17800
H1237       H  0.75193517  0.57174353  0.49613813     0.17800
N1238       N  0.77358353  0.51742947  0.54445424    -0.88900
H1239       H  0.60669553  0.53304750  0.49455056     0.35200
H1240       H  0.62181159  0.50691656  0.45618191     0.40300
H1241       H  0.77762794  0.54243831  0.56056278     0.39900
H1242       H  0.79494605  0.51632338  0.52316150     0.34800
C1243       C  0.69486483  0.43166753  0.25508270    -0.26900
C1244       C  0.67719139  0.40305318  0.23261315    -0.15000
C1245       C  0.69381453  0.39429836  0.19621090     0.35600
C1246       C  0.72526912  0.41553056  0.18233503    -0.26400
C1247       C  0.74102367  0.44602603  0.20348533    -0.15600
C1248       C  0.72618980  0.45321982  0.24088896     0.36700
N1249       N  0.74121237  0.48375495  0.26389931    -0.89900
H1250       H  0.68342924  0.43854871  0.28337003     0.17800
H1251       H  0.73633375  0.40905109  0.15379133     0.17800
N1252       N  0.67847055  0.36441849  0.17247196    -0.88900
H1253       H  0.75096793  0.47219445  0.28992088     0.35200
H1254       H  0.71850542  0.50256452  0.27020135     0.40300
H1255       H  0.70050419  0.34461408  0.16692685     0.39900
H1256       H  0.67000665  0.37643740  0.14619972     0.34800
C1257       C  0.79607919  0.40241932  0.98854938    -0.26900
C1258       C  0.83396929  0.39198677  0.97799993    -0.15000
C1259       C  0.86483162  0.41414385  0.99180565     0.35600
C1260       C  0.85746128  0.44554563  0.01596100    -0.26400
C1261       C  0.81963041  0.45582021  0.02721390    -0.15600
C1262       C  0.78864373  0.43405350  0.01273050     0.36700
N1263       N  0.74962288  0.44366123  0.02243813    -0.89900
H1264       H  0.77190773  0.38594731  0.97789791     0.17800
H1265       H  0.88201899  0.46150115  0.02650165     0.17800
N1266       N  0.90391775  0.40423710  0.98251111    -0.88900
H1267       H  0.73714157  0.41992765  0.03579650     0.35200
H1268       H  0.73464962  0.44887981  0.99681975     0.40300
H1269       H  0.91872284  0.39917541  0.00826388     0.39900
H1270       H  0.91661816  0.42776751  0.96899164     0.34800
C1271       C  0.96694720  0.48181777  0.14164857    -0.26900
C1272       C  0.93367435  0.47830349  0.16463029    -0.15000
C1273       C  0.93455067  0.45147789  0.19544189     0.35600
C1274       C  0.96769263  0.42904006  0.20216211    -0.26400
C1275       C  0.00017973  0.43162949  0.17832054    -0.15600
C1276       C  0.99981516  0.45877173  0.14804817     0.36700
N1277       N  0.03287656  0.46308484  0.12362038    -0.89900
H1278       H  0.96747766  0.50227399  0.11821377     0.17800
H1279       H  0.96716815  0.40801022  0.22509635     0.17800
N1280       N  0.90150195  0.44584868  0.21958116    -0.88900
H1281       H  0.04208618  0.49149433  0.12550360     0.35200
H1282       H  0.02434660  0.45791974  0.09517865     0.40300
H1283       H  0.90958189  0.45111835  0.24812859     0.39900
H1284       H  0.89322776  0.41717041  0.21737358     0.34800
C1285       C  0.90363102  0.67433036  0.14907473    -0.26900
C1286       C  0.87752531  0.65151065  0.16979560    -0.15000
C1287       C  0.85715915  0.66769380  0.20092473     0.35600
C1288       C  0.86459584  0.70531972  0.21211981    -0.26400
C1289       C  0.89388047  0.72697363  0.19452663    -0.15600
C1290       C  0.91268909  0.71176874  0.16159945     0.36700
N1291       N  0.94177461  0.73348203  0.14193582    -0.89900
H1292       H  0.91833634  0.66224380  0.12424636     0.17800
H1293       H  0.84911016  0.71669338  0.23679281     0.17800
N1294       N  0.82892354  0.64595278  0.22154025    -0.88900
H1295       H  0.95216159  0.71831953  0.11795809     0.35200
H1296       H  0.96509105  0.73646706  0.16060145     0.40300
H1297       H  0.80255206  0.66050719  0.22000501     0.39900
H1298       H  0.83714010  0.64475823  0.25052159     0.34800
C1299       C  0.75859042  0.57478240  0.26499465    -0.26900
C1300       C  0.73471480  0.57966677  0.23259076    -0.15000
C1301       C  0.69639380  0.59164105  0.23768667     0.35600
C1302       C  0.68311107  0.59967064  0.27531895    -0.26400
C1303       C  0.70761897  0.59601201  0.30776154    -0.15600
C1304       C  0.74556001  0.58235710  0.30234083     0.36700
N1305       N  0.77099960  0.57647673  0.33454205    -0.89900
H1306       H  0.78791721  0.56453586  0.26115927     0.17800
H1307       H  0.65389805  0.61017796  0.27906355     0.17800
N1308       N  0.67174157  0.59694116  0.20485326    -0.88900
H1309       H  0.79829016  0.56752170  0.32526338     0.35200
H1310       H  0.75972429  0.55403734  0.35093465     0.40300
H1311       H  0.68338693  0.61899679  0.18820686     0.39900
H1312       H  0.64437624  0.60618779  0.21364712     0.34800
C1313       C  0.72306614  0.63659652  0.04604766    -0.26900
C1314       C  0.76300814  0.62939061  0.04464669    -0.15000
C1315       C  0.78646285  0.65533076  0.02375321     0.35600
C1316       C  0.76939016  0.68690620  0.00458579    -0.26400
C1317       C  0.72929782  0.69358656  0.00553113    -0.15600
C1318       C  0.70616864  0.66785526  0.02694557     0.36700
N1319       N  0.66514449  0.67261849  0.02896425    -0.89900
H1320       H  0.70427583  0.61746262  0.06180634     0.17800
H1321       H  0.78757037  0.70585523  0.98793353     0.17800
N1322       N  0.82749048  0.64964163  0.02172957    -0.88900
H1323       H  0.65724454  0.67497489  0.05799017     0.35200
H1324       H  0.65228082  0.64800100  0.01769135     0.40300
H1325       H  0.83854807  0.65413838  0.04939739     0.39900
H1326       H  0.84023478  0.67018479  0.00397391     0.34800
C1327       C  0.53139346  0.73324919  0.76659964    -0.26900
C1328       C  0.53944960  0.69565451  0.75417074    -0.15000
C1329       C  0.57016171  0.67572282  0.77185281     0.35600
C1330       C  0.59032329  0.69248916  0.80263373    -0.26400
C1331       C  0.58079035  0.72918201  0.81693666    -0.15600
C1332       C  0.55172683  0.75032301  0.79747357     0.36700
N1333       N  0.54201866  0.78855552  0.80955451    -0.89900
H1334       H  0.50782524  0.74886444  0.75337716     0.17800
H1335       H  0.61324991  0.67599552  0.81590478     0.17800
N1336       N  0.58072881  0.63803581  0.75911343    -0.88900
H1337       H  0.51905700  0.79930208  0.79326849     0.35200
H1338       H  0.56564333  0.80593558  0.80321723     0.40300
H1339       H  0.57817511  0.61938436  0.78252032     0.39900
H1340       H  0.60970590  0.63849415  0.75072768     0.34800
C1341       C  0.33135077  0.55666469  0.75534645    -0.26900
C1342       C  0.35023292  0.54373143  0.72167788    -0.15000
C1343       C  0.33424682  0.51204279  0.70178090     0.35600
C1344       C  0.30359265  0.49137923  0.71868558    -0.26400
C1345       C  0.28753407  0.50217350  0.75442952    -0.15600
C1346       C  0.30040313  0.53662460  0.77162914     0.36700
N1347       N  0.28253417  0.55227124  0.80548263    -0.89900
H1348       H  0.34126001  0.58226480  0.76992624     0.17800
H1349       H  0.29344395  0.46556604  0.70467319     0.17800
N1350       N  0.34965886  0.50012588  0.66514917    -0.88900
H1351       H  0.28717936  0.53379787  0.82858624     0.35200
H1352       H  0.25288346  0.55473015  0.80049972     0.40300
H1353       H  0.34324581  0.52170850  0.64528126     0.39900
H1354       H  0.33560417  0.47558131  0.65524148     0.34800
C1355       C  0.55622150  0.51781120  0.70768964    -0.26900
C1356       C  0.52903182  0.52121196  0.67791811    -0.15000
C1357       C  0.53440973  0.49883601  0.64416498     0.35600
C1358       C  0.56733586  0.47565317  0.63995421    -0.26400
C1359       C  0.59543567  0.47333289  0.66894451    -0.15600
C1360       C  0.58904827  0.49407269  0.70366846     0.36700
N1361       N  0.61554444  0.49106929  0.73517111    -0.89900
H1362       H  0.55257932  0.53437278  0.73392223     0.17800
H1363       H  0.57092084  0.45957792  0.61341546     0.17800
N1364       N  0.50628533  0.49919259  0.61392861    -0.88900
H1365       H  0.60041533  0.48106441  0.75921246     0.35200
H1366       H  0.62569027  0.51849401  0.74158429     0.40300
H1367       H  0.49653275  0.47118786  0.60987533     0.39900
H1368       H  0.51986249  0.50796700  0.58850752     0.34800
C1369       C  0.51008925  0.63393150  0.53004501    -0.26900
C1370       C  0.51108553  0.65955322  0.56129177    -0.15000
C1371       C  0.53619207  0.69149517  0.55886892     0.35600
C1372       C  0.55950731  0.69673496  0.52595003    -0.26400
C1373       C  0.55889477  0.67058439  0.49517274    -0.15600
C1374       C  0.53341521  0.63906158  0.49737540     0.36700
N1375       N  0.53086717  0.61198910  0.46636606    -0.89900
H1376       H  0.49109677  0.60939650  0.53079029     0.17800
H1377       H  0.57918241  0.72074495  0.52515468     0.17800
N1378       N  0.53879990  0.71850472  0.58988827    -0.88900
H1379       H  0.50232598  0.61149199  0.45671391     0.35200
H1380       H  0.53764635  0.58486045  0.47720811     0.40300
H1381       H  0.53195525  0.74562068  0.57909028     0.39900
H1382       H  0.56739667  0.71904659  0.59940181     0.34800
C1383       C  0.19118293  0.05400419  0.75869425    -0.26900
C1384       C  0.17419508  0.04201475  0.72377200    -0.15000
C1385       C  0.19182474  0.01087603  0.70380167     0.35600
C1386       C  0.22410319  0.99215888  0.71965786    -0.26400
C1387       C  0.23936052  0.00278220  0.75565849    -0.15600
C1388       C  0.22309135  0.03477029  0.77472244     0.36700
N1389       N  0.23853799  0.04763693  0.81077193    -0.89900
H1390       H  0.17926935  0.07822925  0.77432195     0.17800
H1391       H  0.23586850  0.96750256  0.70460537     0.17800
N1392       N  0.17698457  0.99634107  0.66817962    -0.88900
H1393       H  0.21655021  0.04663114  0.83142190     0.35200
H1394       H  0.24686532  0.07619377  0.80762330     0.40300
H1395       H  0.17834834  0.01787995  0.64733740     0.39900
H1396       H  0.14835967  0.98808054  0.67234114     0.34800
C1397       C  0.35800210  0.00238421  0.94772742    -0.26900
C1398       C  0.32078373  0.99396847  0.93351077    -0.15000
C1399       C  0.28947880  0.01656272  0.94734389     0.35600
C1400       C  0.29635272  0.04723690  0.97272584    -0.26400
C1401       C  0.33371788  0.05613525  0.98574940    -0.15600
C1402       C  0.36464201  0.03281199  0.97348250     0.36700
N1403       N  0.40317916  0.04055621  0.98602852    -0.89900
H1404       H  0.38267338  0.98561638  0.93838292     0.17800
H1405       H  0.27201615  0.06437674  0.98232790     0.17800
N1406       N  0.25038123  0.00947975  0.93630161    -0.88900
H1407       H  0.42020567  0.04558919  0.96166195     0.35200
H1408       H  0.41381436  0.01608485  0.99977666     0.40300
H1409       H  0.24316383  0.98156290  0.94425230     0.39900
H1410       H  0.24794609  0.01251139  0.90642679     0.34800
C1411       C  0.46786666  0.96516950  0.81137171    -0.26900
C1412       C  0.43443814  0.97059680  0.78922560    -0.15000
C1413       C  0.43551717  0.99800262  0.75906820     0.35600
C1414       C  0.46888094  0.02013808  0.75304762    -0.26400
C1415       C  0.50134003  0.01623865  0.77686538    -0.15600
C1416       C  0.50082874  0.98748464  0.80584349     0.36700
N1417       N  0.53337414  0.97978944  0.83011493    -0.89900
H1418       H  0.46837059  0.94372772  0.83390320     0.17800
H1419       H  0.46855516  0.04189025  0.73080432     0.17800
N1420       N  0.40255420  0.00446887  0.73506947    -0.88900
H1421       H  0.53767062  0.00282888  0.84882528     0.35200
H1422       H  0.55778924  0.97579172  0.81280458     0.40300
H1423       H  0.41076338  0.99965378  0.70641436     0.39900
H1424       H  0.39441682  0.03320508  0.73777353     0.34800
C1425       C  0.35494209  0.77858828  0.76639928    -0.26900
C1426       C  0.38146816  0.79806953  0.78940759    -0.15000
C1427       C  0.41350763  0.77802613  0.80451373     0.35600
C1428       C  0.42054269  0.73990779  0.79248831    -0.26400
C1429       C  0.39532051  0.72150883  0.76673145    -0.15600
C1430       C  0.36104171  0.74041037  0.75583994     0.36700
N1431       N  0.33289603  0.72120026  0.73276321    -0.89900
H1432       H  0.32929271  0.79323265  0.75639587     0.17800
H1433       H  0.44700903  0.72565563  0.80099395     0.17800
N1434       N  0.43930959  0.79680469  0.83075903    -0.88900
H1435       H  0.32875722  0.73720947  0.70765631     0.35200
H1436       H  0.30685690  0.72112146  0.74802304     0.40300
H1437       H  0.45229397  0.81938942  0.81597393     0.39900
H1438       H  0.46141854  0.77813562  0.83912564     0.34800
C1439       C  0.23049738  0.80931661  0.90610776    -0.26900
C1440       C  0.26930172  0.81930596  0.91215005    -0.15000
C1441       C  0.29195932  0.79511135  0.93577250     0.35600
C1442       C  0.27474748  0.76375707  0.95484999    -0.26400
C1443       C  0.23517615  0.75541569  0.95058295    -0.15600
C1444       C  0.21340614  0.77818290  0.92454149     0.36700
N1445       N  0.17375241  0.77070656  0.91576427    -0.89900
H1446       H  0.21251583  0.82624976  0.88707752     0.17800
H1447       H  0.29229037  0.74672854  0.97420475     0.17800
N1448       N  0.33234004  0.80204061  0.94058790    -0.88900
H1449       H  0.15663982  0.77670403  0.93985625     0.35200
H1450       H  0.17088958  0.74198619  0.90774561     0.40300
H1451       H  0.34735205  0.77770712  0.93118230     0.39900
H1452       H  0.33781452  0.80555884  0.97000787     0.34800
C1453       C  0.21303089  0.67973809  0.42414567    -0.26900
C1454       C  0.23606998  0.69861293  0.45153010    -0.15000
C1455       C  0.27472990  0.68606679  0.45592181     0.35600
C1456       C  0.28794458  0.65321671  0.43570122    -0.26400
C1457       C  0.26407387  0.63291949  0.40990959    -0.15600
C1458       C  0.22628464  0.64776344  0.40338657     0.36700
N1459       N  0.20002344  0.63106676  0.37634544    -0.89900
H1460       H  0.18355871  0.68914148  0.41954487     0.17800
H1461       H  0.31721939  0.64336200  0.44037991     0.17800
N1462       N  0.30025789  0.70588719  0.48166175    -0.88900
H1463       H  0.19430195  0.60286386  0.38446959     0.35200
H1464       H  0.21234181  0.63174300  0.34881578     0.40300
H1465       H  0.30468256  0.73322178  0.47030917     0.39900
H1466       H  0.32731669  0.69258210  0.48227139     0.34800
C1467       C  0.17705891  0.92473005  0.48662213    -0.26900
C1468       C  0.20067919  0.89211044  0.48273821    -0.15000
C1469       C  0.23090775  0.89321263  0.45507017     0.35600
C1470       C  0.23639159  0.92612796  0.43208966    -0.26400
C1471       C  0.21202958  0.95823980  0.43546283    -0.15600
C1472       C  0.18239275  0.95753889  0.46366001     0.36700
N1473       N  0.15760903  0.99026792  0.46896527    -0.89900
H1474       H  0.15409735  0.92481246  0.50783587     0.17800
H1475       H  0.25892127  0.92587939  0.41038304     0.17800
N1476       N  0.25558426  0.86069677  0.44926043    -0.88900
H1477       H  0.17469125  0.01279708  0.47893521     0.35200
H1478       H  0.13701422  0.98507531  0.49036296     0.40300
H1479       H  0.28404756  0.86930550  0.45390200     0.39900
H1480       H  0.25313377  0.85200746  0.42049276     0.34800
C1481       C  0.03727159  0.81230764  0.45958939    -0.26900
C1482       C  0.06095429  0.77950416  0.46143121    -0.15000
C1483       C  0.05898133  0.75270324  0.43097158     0.35600
C1484       C  0.03392396  0.75921251  0.39968279    -0.26400
C1485       C  0.01050891  0.79230183  0.39760746    -0.15600
C1486       C  0.01229973  0.81890164  0.42834423     0.36700
N1487       N  0.98936139  0.85311072  0.42790642    -0.89900
H1488       H  0.03830125  0.83341701  0.48251201     0.17800
H1489       H  0.03327723  0.73824630  0.37661983     0.17800
N1490       N  0.08332388  0.71945794  0.43085234    -0.88900
H1491       H  0.00789608  0.87660287  0.42925954     0.35200
H1492       H  0.97207393  0.85337478  0.45264545     0.40300
H1493       H  0.10041435  0.72017536  0.40598645     0.39900
H1494       H  0.06573866  0.69527227  0.42926966     0.34800
C1495       C  0.22346025  0.81482548  0.68120512    -0.26900
C1496       C  0.20286585  0.84166073  0.65940689    -0.15000
C1497       C  0.18969002  0.87560447  0.67757240     0.35600
C1498       C  0.20111358  0.88379164  0.71557734    -0.26400
C1499       C  0.22487756  0.85834648  0.73614768    -0.15600
C1500       C  0.23358972  0.82216480  0.71959676     0.36700
N1501       N  0.25391102  0.79288044  0.74053146    -0.89900
H1502       H  0.23159011  0.78775567  0.66823667     0.17800
H1503       H  0.19403428  0.91151404  0.72783854     0.17800
N1504       N  0.16667999  0.90317983  0.65744070    -0.88900
H1505       H  0.23644123  0.76856000  0.74092954     0.35200
H1506       H  0.25731733  0.80071650  0.76941508     0.40300
H1507       H  0.14083378  0.89022500  0.64930964     0.39900
H1508       H  0.18148878  0.91138178  0.63252082     0.34800
C1509       C  0.27968379  0.66343601  0.56677044    -0.26900
C1510       C  0.25746786  0.68275695  0.59471859    -0.15000
C1511       C  0.27247965  0.68704379  0.63236791     0.35600
C1512       C  0.31073561  0.67652277  0.63967842    -0.26400
C1513       C  0.33432469  0.66144458  0.61055651    -0.15600
C1514       C  0.31811286  0.65247058  0.57442857     0.36700
N1515       N  0.34120440  0.63421562  0.54518290    -0.89900
H1516       H  0.26813129  0.65973039  0.53800785     0.17800
H1517       H  0.32230692  0.68026414  0.66837788     0.17800
N1518       N  0.24980913  0.70221188  0.66364105    -0.88900
H1519       H  0.32507096  0.63031430  0.52003255     0.35200
H1520       H  0.34827192  0.60681907  0.55502924     0.40300
H1521       H  0.22150688  0.70796103  0.65503699     0.39900
H1522       H  0.26222000  0.72803582  0.67222901     0.34800
C1523       C  0.05810605  0.75313273  0.66256338    -0.26900
C1524       C  0.08181319  0.72896629  0.63996753    -0.15000
C1525       C  0.08703098  0.69065342  0.65247858     0.35600
C1526       C  0.06659803  0.67681957  0.68441625    -0.26400
C1527       C  0.04069889  0.69995512  0.70530203    -0.15600
C1528       C  0.03782531  0.73921948  0.69519659     0.36700
N1529       N  0.01343077  0.76460365  0.71708410    -0.89900
H1530       H  0.05483705  0.78289898  0.65445994     0.17800
H1531       H  0.07017883  0.64692525  0.69198286     0.17800
N1532       N  0.11267565  0.66501180  0.63262827    -0.88900
H1533       H  0.01365696  0.79210648  0.70526053     0.35200
H1534       H  0.02537692  0.76701906  0.74465694     0.40300
H1535       H  0.09678512  0.64145942  0.62307875     0.39900
H1536       H  0.13333575  0.65525178  0.65226423     0.34800
loop_ 
_geom_bond_atom_site_label_1 
_geom_bond_atom_site_label_2 
_geom_bond_distance 
_geom_bond_site_symmetry_2 
_ccdc_geom_bond_type 
Fe1          O17   2.111       .  S
Fe1           O7   2.051       .  S
Fe1          O14   2.041       .  S
Fe1           O6   2.112       .  S
Fe1          O12   1.959       .  S
Fe2           O5   2.130       .  S
Fe2           O9   2.069       .  S
Fe2          O13   2.099       .  S
Fe2          O18   2.034       .  S
Fe2          O12   1.947       .  S
Fe3          O21   2.046       .  S
Fe3           O8   2.115       .  S
Fe3          O15   2.104       .  S
Fe3           O4   2.053       .  S
Fe3          O12   1.952       .  S
O4           C11   1.270       .  A
O5           C19   1.281       .  A
O6           C11   1.280       .  A
O7           C10   1.266       .  A
O8           C20   1.276       .  A
O9           C22   1.273       .  A
C10          O15   1.276       .  A
C10        C1482   1.497       .  S
C11        C1524   1.507       .  S
O13          C16   1.275       .  A
O14          C16   1.260       .  A
C16        C1496   1.481       .  S
O17          C22   1.283       .  A
O18          C20   1.261       .  A
C19          O21   1.268       .  A
C19        C1454   1.506       .  S
C20        C1510   1.474       .  S
C22        C1468   1.507       .  S
Fe23         O39   2.112       .  S
Fe23         O29   2.050       .  S
Fe23         O36   2.038       .  S
Fe23         O28   2.109       .  S
Fe23         O34   1.953       .  S
Fe24         O27   2.121       .  S
Fe24         O31   2.054       .  S
Fe24         O35   2.092       .  S
Fe24         O40   2.026       .  S
Fe24         O34   1.944       .  S
Fe25         O43   2.049       .  S
Fe25         O30   2.128       .  S
Fe25         O37   2.116       .  S
Fe25         O26   2.048       .  S
Fe25         O34   1.947       .  S
O26          C33   1.270       .  A
O27          C41   1.280       .  A
O28          C33   1.279       .  A
O29          C32   1.268       .  A
O30          C42   1.279       .  A
O31          C44   1.271       .  A
C32          O37   1.279       .  A
C32        C1398   1.508       .  S
C33        C1440   1.502       .  S
O35          C38   1.274       .  A
O36          C38   1.260       .  A
C38        C1426   1.475       .  S
O39          C44   1.283       .  A
O40          C42   1.260       .  A
C41          O43   1.267       .  A
C41        C1387   1.496   1_565  S
C42        C1499   1.480       .  S
C44        C1412   1.499       .  S
Fe45         O61   2.106       .  S
Fe45         O51   2.034       .  S
Fe45         O58   2.032       .  S
Fe45         O50   2.106       .  S
Fe45         O56   1.947       .  S
Fe46         O49   2.122       .  S
Fe46         O53   2.055       .  S
Fe46         O57   2.101       .  S
Fe46         O62   2.025       .  S
Fe46         O56   1.935       .  S
Fe47         O65   2.048       .  S
Fe47         O52   2.125       .  S
Fe47         O59   2.124       .  S
Fe47         O48   2.064       .  S
Fe47         O56   1.948       .  S
O48          C55   1.272       .  A
O49          C63   1.282       .  A
O50          C55   1.278       .  A
O51          C54   1.264       .  A
O52          C64   1.277       .  A
O53          C66   1.269       .  A
C54          O59   1.281       .  A
C54        C1356   1.496       .  S
C55        C1342   1.505       .  S
O57          C60   1.276       .  A
O58          C60   1.259       .  A
C60        C1513   1.472       .  S
O61          C66   1.281       .  A
O62          C64   1.260       .  A
C63          O65   1.269       .  A
C63        C1328   1.496       .  S
C64        C1429   1.480       .  S
C66        C1370   1.500       .  S
Fe67         O83   2.136       .  S
Fe67         O73   2.027       .  S
Fe67         O80   2.044       .  S
Fe67         O72   2.111       .  S
Fe67         O78   1.936       .  S
Fe68         O71   2.127       .  S
Fe68         O75   2.040       .  S
Fe68         O79   2.084       .  S
Fe68         O84   2.010       .  S
Fe68         O78   1.925       .  S
Fe69         O87   2.053       .  S
Fe69         O74   2.136       .  S
Fe69         O81   2.117       .  S
Fe69         O70   2.063       .  S
Fe69         O78   1.950       .  S
O70          C77   1.272       .  A
O71          C85   1.279       .  A
O72          C77   1.279       .  A
O73          C76   1.266       .  A
O74          C86   1.278       .  A
O75          C88   1.271       .  A
C76          O81   1.282       .  A
C76        C1261   1.495       .  S
C77        C1314   1.507       .  S
O79          C82   1.271       .  A
O80          C82   1.260       .  A
C82        C1286   1.477       .  S
O83          C88   1.288       .  A
O84          C86   1.253       .  A
C85          O87   1.269       .  A
C85        C1247   1.500       .  S
C86        C1300   1.473       .  S
C88        C1272   1.505       .  S
Fe89        O105   2.127       .  S
Fe89         O95   2.032       .  S
Fe89        O102   2.030       .  S
Fe89         O94   2.112       .  S
Fe89        O100   1.945       .  S
Fe90         O93   2.107       .  S
Fe90         O97   2.040       .  S
Fe90        O101   2.087       .  S
Fe90        O106   2.015       .  S
Fe90        O100   1.939       .  S
Fe91        O109   2.056       .  S
Fe91         O96   2.129       .  S
Fe91        O103   2.119       .  S
Fe91         O92   2.063       .  S
Fe91        O100   1.943       .  S
O92          C99   1.270       .  A
O93         C107   1.275       .  A
O94          C99   1.278       .  A
O95          C98   1.265       .  A
O96         C108   1.283       .  A
O97         C110   1.270       .  A
C98         O103   1.282       .  A
C98        C1373   1.494       .  S
C99        C1216   1.510       .  S
O101        C104   1.272       .  A
O102        C104   1.258       .  A
C104       C1303   1.485       .  S
O105        C110   1.286       .  A
O106        C108   1.262       .  A
C107        O109   1.266       .  A
C107       C1191   1.491       .  S
C108       C1205   1.482       .  S
C110       C1233   1.498       .  S
Fe111       O127   2.113       .  S
Fe111       O117   2.039       .  S
Fe111       O124   2.039       .  S
Fe111       O116   2.101       .  S
Fe111       O122   1.943       .  S
Fe112       O115   2.118       .  S
Fe112       O119   2.051       .  S
Fe112       O123   2.091       .  S
Fe112       O128   2.013       .  S
Fe112       O122   1.937       .  S
Fe113       O131   2.044   1_655  S
Fe113       O118   2.135       .  S
Fe113       O125   2.131       .  S
Fe113       O114   2.059       .  S
Fe113       O122   1.939       .  S
O114        C121   1.270       .  A
O115        C129   1.278   1_655  A
O116        C121   1.276       .  A
O117        C120   1.268       .  A
O118        C130   1.282       .  A
O119        C132   1.271       .  A
C120        O125   1.284       .  A
C120       C1160   1.503   1_655  S
C121       C1177   1.503       .  S
O123        C126   1.274       .  A
O124        C126   1.261       .  A
C126       C1202   1.476       .  S
O127        C132   1.282       .  A
O128        C130   1.261       .  A
C129        O131   1.266       .  A
C129       C1149   1.497       .  S
C130       C1289   1.486       .  S
C132       C1485   1.501   1_655  S
Fe133       O149   2.132       .  S
Fe133       O139   2.032       .  S
Fe133       O146   2.044       .  S
Fe133       O138   2.105       .  S
Fe133       O144   1.936       .  S
Fe134       O137   2.135       .  S
Fe134       O141   2.037       .  S
Fe134       O145   2.103       .  S
Fe134       O150   2.004       .  S
Fe134       O144   1.925       .  S
Fe135       O153   2.046       .  S
Fe135       O140   2.143       .  S
Fe135       O147   2.124       .  S
Fe135       O136   2.057       .  S
Fe135       O144   1.942       .  S
O136        C143   1.269       .  A
O137        C151   1.279       .  A
O138        C143   1.278       .  A
O139        C142   1.265       .  A
O140        C152   1.283       .  A
O141        C154   1.272       .  A
C142        O147   1.284       .  A
C142       C1415   1.492       .  S
C143       C1135   1.503       .  S
O145        C148   1.275       .  A
O146        C148   1.260       .  A
C148       C1104   1.496       .  S
O149        C154   1.286       .  A
O150        C152   1.259       .  A
C151        O153   1.265       .  A
C151       C1079   1.505       .  S
C152       C1121   1.489       .  S
C154       C1090   1.501       .  S
Fe155       O171   2.110       .  S
Fe155       O161   2.033       .  S
Fe155       O168   2.038       .  S
Fe155       O160   2.102       .  S
Fe155       O166   1.944       .  S
Fe156       O159   2.129       .  S
Fe156       O163   2.045       .  S
Fe156       O167   2.086       .  S
Fe156       O172   2.012       .  S
Fe156       O166   1.933       .  S
Fe157       O175   2.049       .  S
Fe157       O162   2.154       .  S
Fe157       O169   2.135       .  S
Fe157       O158   2.075       .  S
Fe157       O166   1.949       .  S
O158        C165   1.275       .  A
O159        C173   1.280       .  A
O160        C165   1.278       .  A
O161        C164   1.265       .  A
O162        C174   1.281       .  A
O163        C176   1.272       .  A
C164        O169   1.285       .  A
C164       C1034   1.497       .  S
C165       C1065   1.508       .  S
O167        C170   1.272       .  A
O168        C170   1.259       .  A
C170       C1048   1.473       .  S
O171        C176   1.282       .  A
O172        C174   1.251       .  A
C173        O175   1.269       .  A
C173       C1023   1.500   1_556  S
C174       C1107   1.492       .  S
C176       C1258   1.488       .  S
Fe177       O193   2.117       .  S
Fe177       O183   2.045       .  S
Fe177       O190   2.042       .  S
Fe177       O182   2.112       .  S
Fe177       O188   1.950       .  S
Fe178       O181   2.110       .  S
Fe178       O185   2.052       .  S
Fe178       O189   2.089       .  S
Fe178       O194   2.026       .  S
Fe178       O188   1.944       .  S
Fe179       O197   2.046       .  S
Fe179       O184   2.117       .  S
Fe179       O191   2.109       .  S
Fe179       O180   2.055       .  S
Fe179       O188   1.946       .  S
O180        C187   1.268       .  A
O181        C195   1.275       .  A
O182        C187   1.278       .  A
O183        C186   1.268       .  A
O184        C196   1.279       .  A
O185        C198   1.271       .  A
C186        O191   1.279       .  A
C186       C1230   1.499       .  S
C187       C1006   1.508       .  S
O189        C192   1.273       .  A
O190        C192   1.261       .  A
C192       C1118   1.483       .  S
O193        C198   1.284       .  A
O194        C196   1.266       .  A
C195        O197   1.265       .  A
C195        C992   1.493       .  S
C196       C1051   1.477       .  S
C198       C1359   1.500       .  S
Fe199       O215   2.119       .  S
Fe199       O205   2.042       .  S
Fe199       O212   2.039       .  S
Fe199       O204   2.100       .  S
Fe199       O210   1.950       .  S
Fe200       O203   2.125       .  S
Fe200       O207   2.048       .  S
Fe200       O211   2.088       .  S
Fe200       O216   2.012       .  S
Fe200       O210   1.938       .  S
Fe201       O219   2.053   1_554  S
Fe201       O206   2.126       .  S
Fe201       O213   2.114       .  S
Fe201       O202   2.060       .  S
Fe201       O210   1.944       .  S
O202        C209   1.268       .  A
O203        C217   1.278   1_554  A
O204        C209   1.278       .  A
O205        C208   1.266   1_554  A
O206        C218   1.280       .  A
O207        C220   1.273       .  A
C208        O213   1.281   1_556  A
C208       C1093   1.489       .  S
C209        C981   1.506       .  S
O211        C214   1.272       .  A
O212        C214   1.258       .  A
C214        C967   1.477       .  S
O215        C220   1.285       .  A
O216        C218   1.261       .  A
C217        O219   1.267       .  A
C217        C939   1.507       .  S
C218        C950   1.479       .  S
C220       C1401   1.495   1_554  S
Fe221       O237   2.129       .  S
Fe221       O227   2.038       .  S
Fe221       O234   2.038       .  S
Fe221       O226   2.116       .  S
Fe221       O232   1.947       .  S
Fe222       O225   2.126       .  S
Fe222       O229   2.047       .  S
Fe222       O233   2.089       .  S
Fe222       O238   2.018       .  S
Fe222       O232   1.934       .  S
Fe223       O241   2.047       .  S
Fe223       O228   2.146       .  S
Fe223       O235   2.126       .  S
Fe223       O224   2.060       .  S
Fe223       O232   1.952       .  S
O224        C231   1.270       .  A
O225        C239   1.281       .  A
O226        C231   1.282       .  A
O227        C230   1.265       .  A
O228        C240   1.279       .  A
O229        C242   1.271       .  A
C230        O235   1.283       .  A
C230       C1275   1.493       .  S
C231        C922   1.507       .  S
O233        C236   1.272       .  A
O234        C236   1.259       .  A
C236        C953   1.475       .  S
O237        C242   1.287       .  A
O238        C240   1.254       .  A
C239        O241   1.268       .  A
C239        C894   1.501   1_455  S
C240        C911   1.483       .  S
C242       C1037   1.505       .  S
Fe243       O259   2.129       .  S
Fe243       O249   2.049       .  S
Fe243       O256   2.043       .  S
Fe243       O248   2.114       .  S
Fe243       O254   1.942       .  S
Fe244       O247   2.128   1_545  S
Fe244       O251   2.048   1_545  S
Fe244       O255   2.103       .  S
Fe244       O260   2.009       .  S
Fe244       O254   1.941       .  S
Fe245       O263   2.044   1_545  S
Fe245       O250   2.130       .  S
Fe245       O257   2.122   1_545  S
Fe245       O246   2.054       .  S
Fe245       O254   1.948       .  S
O246        C253   1.268       .  A
O247        C261   1.279       .  A
O248        C253   1.279       .  A
O249        C252   1.269   1_545  A
O250        C262   1.282       .  A
O251        C264   1.272       .  A
C252        O257   1.282       .  A
C252       C1471   1.500       .  S
C253        C880   1.507       .  S
O255        C258   1.274       .  A
O256        C258   1.261       .  A
C258        C908   1.494       .  S
O259        C264   1.286   1_545  A
O260        C262   1.259       .  A
C261        O263   1.265       .  A
C261        C869   1.500       .  S
C262        C964   1.483       .  S
C264       C1163   1.503       .  S
Fe265       O281   2.029       .  S
Fe265       O271   2.103       .  S
Fe265       O278   2.114       .  S
Fe265       O270   2.020       .  S
Fe265       O276   1.941       .  S
Fe266       O269   2.012       .  S
Fe266       O273   2.097       .  S
Fe266       O277   2.036       .  S
Fe266       O282   2.125       .  S
Fe266       O276   1.926       .  S
Fe267       O285   2.150       .  S
Fe267       O272   2.053       .  S
Fe267       O279   2.067       .  S
Fe267       O268   2.135       .  S
Fe267       O276   1.945       .  S
O268        C275   1.285       .  A
O269        C283   1.256       .  A
O270        C275   1.264       .  A
O271        C274   1.277       .  A
O272        C284   1.268       .  A
O273        C286   1.275       .  A
C274        O279   1.273       .  A
C274       C1384   1.507       .  S
C275        C824   1.500   1_455  S
O277        C280   1.268       .  A
O278        C280   1.283       .  A
C280        C813   1.491       .  S
O281        C286   1.259       .  A
O282        C284   1.280       .  A
C283        O285   1.282       .  A
C283        C841   1.482       .  S
C284       C1062   1.498   1_455  S
C286        C852   1.472       .  S
Fe287       O303   2.046       .  S
Fe287       O293   2.116       .  S
Fe287       O300   2.139       .  S
Fe287       O292   2.040       .  S
Fe287       O298   1.944       .  S
Fe288       O291   2.006       .  S
Fe288       O295   2.100       .  S
Fe288       O299   2.036       .  S
Fe288       O304   2.115       .  S
Fe288       O298   1.937       .  S
Fe289       O307   2.119       .  S
Fe289       O294   2.057       .  S
Fe289       O301   2.066       .  S
Fe289       O290   2.112       .  S
Fe289       O298   1.948       .  S
O290        C297   1.280       .  A
O291        C305   1.258       .  A
O292        C297   1.268       .  A
O293        C296   1.280       .  A
O294        C306   1.266       .  A
O295        C308   1.275       .  A
C296        O301   1.270       .  A
C296        C936   1.514       .  S
C297        C768   1.497       .  S
O299        C302   1.267       .  A
O300        C302   1.288       .  A
C302        C785   1.506       .  S
O303        C308   1.260       .  A
O304        C306   1.277       .  A
C305        O307   1.280       .  A
C305        C799   1.472       .  S
C306       C1345   1.497       .  S
C308        C838   1.492       .  S
Fe309       O325   2.020       .  S
Fe309       O315   2.116       .  S
Fe309       O322   2.122       .  S
Fe309       O314   2.026       .  S
Fe309       O320   1.950       .  S
Fe310       O313   2.010       .  S
Fe310       O317   2.096       .  S
Fe310       O321   2.044       .  S
Fe310       O326   2.120       .  S
Fe310       O320   1.938       .  S
Fe311       O329   2.125       .  S
Fe311       O316   2.047       .  S
Fe311       O323   2.061       .  S
Fe311       O312   2.111       .  S
Fe311       O320   1.944       .  S
O312        C319   1.280       .  A
O313        C327   1.261       .  A
O314        C319   1.265       .  A
O315        C318   1.280       .  A
O316        C328   1.267       .  A
O317        C330   1.275       .  A
C318        O323   1.270       .  A
C318       C1076   1.511       .  S
C319        C757   1.488       .  S
O321        C324   1.269       .  A
O322        C324   1.283       .  A
C324        C740   1.501       .  S
O325        C330   1.257       .  A
O326        C328   1.279       .  A
C327        O329   1.279       .  A
C327        C855   1.480       .  S
C328        C883   1.500       .  S
C330        C796   1.468       .  S
Fe331       O347   2.040       .  S
Fe331       O337   2.108       .  S
Fe331       O344   2.125       .  S
Fe331       O336   2.045       .  S
Fe331       O342   1.945       .  S
Fe332       O335   2.018       .  S
Fe332       O339   2.095       .  S
Fe332       O343   2.039   1_545  S
Fe332       O348   2.121   1_545  S
Fe332       O342   1.934       .  S
Fe333       O351   2.132       .  S
Fe333       O338   2.042   1_545  S
Fe333       O345   2.056       .  S
Fe333       O334   2.119   1_545  S
Fe333       O342   1.937       .  S
O334        C341   1.282       .  A
O335        C349   1.262       .  A
O336        C341   1.269   1_545  A
O337        C340   1.278       .  A
O338        C350   1.264       .  A
O339        C352   1.276       .  A
C340        O345   1.268       .  A
C340       C1020   1.506       .  S
C341        C701   1.494       .  S
O343        C346   1.270       .  A
O344        C346   1.283   1_545  A
C346        C687   1.500       .  S
O347        C352   1.260       .  A
O348        C350   1.277       .  A
C349        O351   1.283       .  A
C349        C712   1.482       .  S
C350       C1174   1.494       .  S
C352        C726   1.491       .  S
Fe353       O369   2.036       .  S
Fe353       O359   2.118       .  S
Fe353       O366   2.130       .  S
Fe353       O358   2.032       .  S
Fe353       O364   1.940       .  S
Fe354       O357   2.004       .  S
Fe354       O361   2.095       .  S
Fe354       O365   2.046       .  S
Fe354       O370   2.125       .  S
Fe354       O364   1.934       .  S
Fe355       O373   2.119       .  S
Fe355       O360   2.046       .  S
Fe355       O367   2.052       .  S
Fe355       O356   2.104       .  S
Fe355       O364   1.945       .  S
O356        C363   1.279       .  A
O357        C371   1.259       .  A
O358        C363   1.265       .  A
O359        C362   1.281       .  A
O360        C372   1.267       .  A
O361        C374   1.274       .  A
C362        O367   1.270       .  A
C362        C897   1.506       .  S
C363        C810   1.486       .  S
O365        C368   1.270       .  A
O366        C368   1.287       .  A
C368        C656   1.504       .  S
O369        C374   1.260       .  A
O370        C372   1.278       .  A
C371        O373   1.277       .  A
C371        C670   1.473       .  S
C372       C1009   1.504       .  S
C374        C715   1.477       .  S
Fe375       O391   2.026       .  S
Fe375       O381   2.110       .  S
Fe375       O388   2.117       .  S
Fe375       O380   2.024       .  S
Fe375       O386   1.938       .  S
Fe376       O379   2.014       .  S
Fe376       O383   2.086       .  S
Fe376       O387   2.036       .  S
Fe376       O392   2.123       .  S
Fe376       O386   1.927       .  S
Fe377       O395   2.143       .  S
Fe377       O382   2.050       .  S
Fe377       O389   2.062       .  S
Fe377       O378   2.128       .  S
Fe377       O386   1.945       .  S
O378        C385   1.283       .  A
O379        C393   1.253       .  A
O380        C385   1.264       .  A
O381        C384   1.280       .  A
O382        C394   1.270       .  A
O383        C396   1.272       .  A
C384        O389   1.271       .  A
C384       C1244   1.506       .  S
C385        C645   1.496       .  S
O387        C390   1.270       .  A
O388        C390   1.284       .  A
C390        C754   1.494       .  S
O391        C396   1.257       .  A
O392        C394   1.279       .  A
C393        O395   1.279       .  A
C393        C729   1.484       .  S
C394        C978   1.503       .  S
C396        C673   1.466       .  S
Fe397       O413   2.035       .  S
Fe397       O403   2.101       .  S
Fe397       O410   2.112       .  S
Fe397       O402   2.035       .  S
Fe397       O408   1.941       .  S
Fe398       O401   2.010       .  S
Fe398       O405   2.098       .  S
Fe398       O409   2.048   1_554  S
Fe398       O414   2.115   1_554  S
Fe398       O408   1.942       .  S
Fe399       O417   2.112       .  S
Fe399       O404   2.044   1_554  S
Fe399       O411   2.057       .  S
Fe399       O400   2.109       .  S
Fe399       O408   1.938       .  S
O400        C407   1.281   1_554  A
O401        C415   1.262       .  A
O402        C407   1.267   1_554  A
O403        C406   1.274       .  A
O404        C416   1.263       .  A
O405        C418   1.275       .  A
C406        O411   1.269       .  A
C406       C1146   1.504       .  S
C407        C603   1.487       .  S
O409        C412   1.270   1_556  A
O410        C412   1.281       .  A
C412        C771   1.496   1_554  S
O413        C418   1.261       .  A
O414        C416   1.276       .  A
C415        O417   1.280       .  A
C415        C617   1.466       .  S
C416       C1443   1.500       .  S
C418        C628   1.490       .  S
Fe419       O435   2.019       .  S
Fe419       O425   2.106       .  S
Fe419       O432   2.113       .  S
Fe419       O424   2.027       .  S
Fe419       O430   1.954       .  S
Fe420       O423   2.016       .  S
Fe420       O427   2.093       .  S
Fe420       O431   2.044       .  S
Fe420       O436   2.120       .  S
Fe420       O430   1.944       .  S
Fe421       O439   2.128       .  S
Fe421       O426   2.051       .  S
Fe421       O433   2.064       .  S
Fe421       O422   2.122       .  S
Fe421       O430   1.944       .  S
O422        C429   1.281       .  A
O423        C437   1.262       .  A
O424        C429   1.264       .  A
O425        C428   1.278       .  A
O426        C438   1.267       .  A
O427        C440   1.274       .  A
C428        O433   1.269       .  A
C428        C866   1.510       .  S
C429        C684   1.500       .  S
O431        C434   1.270       .  A
O432        C434   1.281       .  A
C434        C575   1.497       .  S
O435        C440   1.257       .  A
O436        C438   1.278       .  A
C437        O439   1.281       .  A
C437        C589   1.482       .  S
C438       C1219   1.504       .  S
C440        C614   1.465       .  S
Fe441       O457   2.044       .  S
Fe441       O447   2.113       .  S
Fe441       O454   2.128       .  S
Fe441       O446   2.035       .  S
Fe441       O452   1.936       .  S
Fe442       O445   2.001       .  S
Fe442       O449   2.093       .  S
Fe442       O453   2.037       .  S
Fe442       O458   2.130       .  S
Fe442       O452   1.925       .  S
Fe443       O461   2.149       .  S
Fe443       O448   2.049       .  S
Fe443       O455   2.062       .  S
Fe443       O444   2.129       .  S
Fe443       O452   1.943       .  S
O444        C451   1.285       .  A
O445        C459   1.252       .  A
O446        C451   1.268       .  A
O447        C450   1.280       .  A
O448        C460   1.267       .  A
O449        C462   1.273       .  A
C450        O455   1.270       .  A
C450       C1457   1.512       .  S
C451        C743   1.501       .  S
O453        C456   1.271       .  A
O454        C456   1.286       .  A
C456        C642   1.497       .  S
O457        C462   1.260       .  A
O458        C460   1.279       .  A
C459        O461   1.282       .  A
C459        C631   1.482       .  S
C460        C925   1.498       .  S
C462        C586   1.476       .  S
Fe463       O479   2.038       .  S
Fe463       O469   2.110       .  S
Fe463       O476   2.124       .  S
Fe463       O468   2.040       .  S
Fe463       O474   1.943       .  S
Fe464       O467   2.024       .  S
Fe464       O471   2.094       .  S
Fe464       O475   2.050       .  S
Fe464       O480   2.127       .  S
Fe464       O474   1.935       .  S
Fe465       O483   2.120       .  S
Fe465       O470   2.041       .  S
Fe465       O477   2.058       .  S
Fe465       O466   2.107       .  S
Fe465       O474   1.936       .  S
O466        C473   1.280       .  A
O467        C481   1.262       .  A
O468        C473   1.267       .  A
O469        C472   1.278       .  A
O470        C482   1.264       .  A
O471        C484   1.275       .  A
C472        O477   1.270       .  A
C472       C1331   1.506       .  S
C473        C572   1.484       .  S
O475        C478   1.272       .  A
O476        C478   1.284       .  A
C478        C698   1.504       .  S
O479        C484   1.261       .  A
O480        C482   1.280       .  A
C481        O483   1.278       .  A
C481        C558   1.469       .  S
C482       C1317   1.505   1_556  S
C484        C544   1.482       .  S
Fe485       O501   2.041       .  S
Fe485       O491   2.104       .  S
Fe485       O498   2.121       .  S
Fe485       O490   2.037       .  S
Fe485       O496   1.940       .  S
Fe486       O489   2.006       .  S
Fe486       O493   2.092       .  S
Fe486       O497   2.038       .  S
Fe486       O502   2.121       .  S
Fe486       O496   1.928       .  S
Fe487       O505   2.139       .  S
Fe487       O492   2.043       .  S
Fe487       O499   2.063       .  S
Fe487       O488   2.125       .  S
Fe487       O496   1.946       .  S
O488        C495   1.283       .  A
O489        C503   1.257       .  A
O490        C495   1.267       .  A
O491        C494   1.278       .  A
O492        C504   1.266       .  A
O493        C506   1.273       .  A
C494        O499   1.271       .  A
C494       C1188   1.503       .  S
C495        C659   1.491       .  S
O497        C500   1.270       .  A
O498        C500   1.284       .  A
C500        C827   1.490       .  S
O501        C506   1.260       .  A
O502        C504   1.279       .  A
C503        O505   1.280       .  A
C503        C547   1.491       .  S
C504       C1132   1.494   1_565  S
C506        C533   1.475       .  S
Fe507       O523   2.032       .  S
Fe507       O513   2.101       .  S
Fe507       O520   2.107       .  S
Fe507       O512   2.039       .  S
Fe507       O518   1.952       .  S
Fe508       O511   2.024       .  S
Fe508       O515   2.094       .  S
Fe508       O519   2.047       .  S
Fe508       O524   2.121       .  S
Fe508       O518   1.944       .  S
Fe509       O527   2.130       .  S
Fe509       O514   2.049   1_655  S
Fe509       O521   2.065       .  S
Fe509       O510   2.124       .  S
Fe509       O518   1.946       .  S
O510        C517   1.282       .  A
O511        C525   1.261       .  A
O512        C517   1.265       .  A
O513        C516   1.277       .  A
O514        C526   1.269       .  A
O515        C528   1.273       .  A
C516        O521   1.273       .  A
C516        C995   1.502       .  S
C517        C782   1.494   1_655  S
O519        C522   1.269       .  A
O520        C522   1.282       .  A
C522        C600   1.496   1_655  S
O523        C528   1.259       .  A
O524        C526   1.278   1_655  A
C525        O527   1.280       .  A
C525        C530   1.483       .  S
C526       C1527   1.503       .  S
C528        C561   1.469       .  S
C529        C530   1.408       .  A
C529        C534   1.407       .  A
C529        H536   1.084       .  S
C530        C531   1.412       .  A
C531        C532   1.397       .  A
C531        N538   1.431       .  S
C532        C533   1.397       .  A
C532        H537   1.083       .  S
C533        C534   1.414       .  A
C534        N535   1.432       .  S
N535        H539   1.046       .  S
N535        H540   1.045       .  S
N538        H541   1.046       .  S
N538        H542   1.046       .  S
C543        C544   1.412       .  A
C543        C548   1.412       .  A
C543        H550   1.084       .  S
C544        C545   1.405       .  A
C545        C546   1.392       .  A
C545        N552   1.434       .  S
C546        C547   1.411       .  A
C546        H551   1.082       .  S
C547        C548   1.410       .  A
C548        N549   1.432       .  S
N549        H553   1.046       .  S
N549        H554   1.045       .  S
N552        H555   1.046       .  S
N552        H556   1.045       .  S
C557        C558   1.407       .  A
C557        C562   1.403       .  A
C557        H564   1.084       .  S
C558        C559   1.414       .  A
C559        C560   1.397       .  A
C559        N566   1.439       .  S
C560        C561   1.398       .  A
C560        H565   1.081       .  S
C561        C562   1.410       .  A
C562        N563   1.432       .  S
N563        H567   1.046       .  S
N563        H568   1.045       .  S
N566        H569   1.044       .  S
N566        H570   1.045       .  S
C571        C572   1.406       .  A
C571        C576   1.407   1_556  A
C571        H578   1.084       .  S
C572        C573   1.407   1_556  A
C573        C574   1.404       .  A
C573        N580   1.432       .  S
C574        C575   1.411       .  A
C574        H579   1.083       .  S
C575        C576   1.415       .  A
C576        N577   1.432       .  S
N577        H581   1.045   1_554  S
N577        H582   1.046       .  S
N580        H583   1.045       .  S
N580        H584   1.046       .  S
C585        C586   1.405       .  A
C585        C590   1.414       .  A
C585        H592   1.084       .  S
C586        C587   1.405       .  A
C587        C588   1.395       .  A
C587        N594   1.431       .  S
C588        C589   1.404       .  A
C588        H593   1.084       .  S
C589        C590   1.415       .  A
C590        N591   1.437       .  S
N591        H595   1.045       .  S
N591        H596   1.046       .  S
N594        H597   1.046       .  S
N594        H598   1.046       .  S
C599        C600   1.405       .  A
C599        C604   1.402       .  A
C599        H606   1.083   1_455  S
C600        C601   1.421       .  A
C601        C602   1.408       .  A
C601        N608   1.433       .  S
C602        C603   1.402       .  A
C602        H607   1.084       .  S
C603        C604   1.413       .  A
C604        N605   1.433       .  S
N605        H609   1.046       .  S
N605        H610   1.045   1_556  S
N608        H611   1.046       .  S
N608        H612   1.046       .  S
C613        C614   1.398       .  A
C613        C618   1.392       .  A
C613        H620   1.084       .  S
C614        C615   1.412       .  A
C615        C616   1.406       .  A
C615        N622   1.438       .  S
C616        C617   1.404       .  A
C616        H621   1.084       .  S
C617        C618   1.416       .  A
C618        N619   1.435       .  S
N619        H623   1.044       .  S
N619        H624   1.045       .  S
N622        H625   1.045       .  S
N622        H626   1.046       .  S
C627        C628   1.416       .  A
C627        C632   1.409       .  A
C627        H634   1.083       .  S
C628        C629   1.408       .  A
C629        C630   1.396       .  A
C629        N636   1.433       .  S
C630        C631   1.411       .  A
C630        H635   1.084       .  S
C631        C632   1.400       .  A
C632        N633   1.431       .  S
N633        H637   1.045       .  S
N633        H638   1.046       .  S
N636        H639   1.046       .  S
N636        H640   1.046       .  S
C641        C642   1.413       .  A
C641        C646   1.411       .  A
C641        H648   1.083       .  S
C642        C643   1.409       .  A
C643        C644   1.404       .  A
C643        N650   1.433       .  S
C644        C645   1.413       .  A
C644        H649   1.084       .  S
C645        C646   1.412       .  A
C646        N647   1.437       .  S
N647        H651   1.046       .  S
N647        H652   1.046       .  S
N650        H653   1.046       .  S
N650        H654   1.046       .  S
C655        C656   1.406       .  A
C655        C660   1.410   1_545  A
C655        H662   1.083       .  S
C656        C657   1.422       .  A
C657        C658   1.410       .  A
C657        N664   1.433       .  S
C658        C659   1.401   1_545  A
C658        H663   1.084       .  S
C659        C660   1.415       .  A
C660        N661   1.438       .  S
N661        H665   1.045       .  S
N661        H666   1.046       .  S
N664        H667   1.046       .  S
N664        H668   1.046       .  S
C669        C670   1.405       .  A
C669        C674   1.390       .  A
C669        H676   1.084       .  S
C670        C671   1.410       .  A
C671        C672   1.408       .  A
C671        N678   1.432       .  S
C672        C673   1.407       .  A
C672        H677   1.084       .  S
C673        C674   1.403       .  A
C674        N675   1.432       .  S
N675        H679   1.046       .  S
N675        H680   1.045       .  S
N678        H681   1.045       .  S
N678        H682   1.045       .  S
C683        C684   1.413       .  A
C683        C688   1.402       .  A
C683        H690   1.084       .  S
C684        C685   1.415       .  A
C685        C686   1.403       .  A
C685        N692   1.432       .  S
C686        C687   1.413       .  A
C686        H691   1.083       .  S
C687        C688   1.416       .  A
C688        N689   1.433       .  S
N689        H693   1.045       .  S
N689        H694   1.045   1_565  S
N692        H695   1.044       .  S
N692        H696   1.046       .  S
C697        C698   1.413   1_554  A
C697        C702   1.414       .  A
C697        H704   1.083       .  S
C698        C699   1.413       .  A
C699        C700   1.406       .  A
C699        N706   1.432       .  S
C700        C701   1.407   1_556  A
C700        H705   1.084       .  S
C701        C702   1.413       .  A
C702        N703   1.437       .  S
N703        H707   1.045       .  S
N703        H708   1.046       .  S
N706        H709   1.046       .  S
N706        H710   1.045       .  S
C711        C712   1.405       .  A
C711        C716   1.412       .  A
C711        H718   1.084       .  S
C712        C713   1.414       .  A
C713        C714   1.399       .  A
C713        N720   1.434       .  S
C714        C715   1.399       .  A
C714        H719   1.083       .  S
C715        C716   1.413       .  A
C716        N717   1.437       .  S
N717        H721   1.045       .  S
N717        H722   1.046       .  S
N720        H723   1.046       .  S
N720        H724   1.046       .  S
C725        C726   1.398       .  A
C725        C730   1.392       .  A
C725        H732   1.084       .  S
C726        C727   1.425       .  A
C727        C728   1.415       .  A
C727        N734   1.437       .  S
C728        C729   1.400       .  A
C728        H733   1.083       .  S
C729        C730   1.418       .  A
C730        N731   1.435       .  S
N731        H735   1.046       .  S
N731        H736   1.045       .  S
N734        H737   1.046       .  S
N734        H738   1.045       .  S
C739        C740   1.413       .  A
C739        C744   1.413       .  A
C739        H746   1.083       .  S
C740        C741   1.410       .  A
C741        C742   1.405       .  A
C741        N748   1.432       .  S
C742        C743   1.412       .  A
C742        H747   1.084       .  S
C743        C744   1.413       .  A
C744        N745   1.438       .  S
N745        H749   1.046       .  S
N745        H750   1.046       .  S
N748        H751   1.046       .  S
N748        H752   1.046       .  S
C753        C754   1.412       .  A
C753        C758   1.405       .  A
C753        H760   1.083       .  S
C754        C755   1.411       .  A
C755        C756   1.403       .  A
C755        N762   1.432       .  S
C756        C757   1.409       .  A
C756        H761   1.084       .  S
C757        C758   1.408       .  A
C758        N759   1.432       .  S
N759        H763   1.045       .  S
N759        H764   1.045       .  S
N762        H765   1.046       .  S
N762        H766   1.046       .  S
C767        C768   1.410       .  A
C767        C772   1.407       .  A
C767        H774   1.083       .  S
C768        C769   1.411       .  A
C769        C770   1.408       .  A
C769        N776   1.432       .  S
C770        C771   1.410       .  A
C770        H775   1.084       .  S
C771        C772   1.414       .  A
C772        N773   1.438       .  S
N773        H777   1.046       .  S
N773        H778   1.046       .  S
N776        H779   1.045       .  S
N776        H780   1.045       .  S
C781        C782   1.401       .  A
C781        C786   1.410       .  A
C781        H788   1.084       .  S
C782        C783   1.416       .  A
C783        C784   1.409       .  A
C783        N790   1.432   1_455  S
C784        C785   1.405       .  A
C784        H789   1.083       .  S
C785        C786   1.425       .  A
C786        N787   1.433       .  S
N787        H791   1.046       .  S
N787        H792   1.045       .  S
N790        H793   1.046   1_655  S
N790        H794   1.046       .  S
C795        C796   1.397       .  A
C795        C800   1.392       .  A
C795        H802   1.084       .  S
C796        C797   1.413       .  A
C797        C798   1.408       .  A
C797        N804   1.438       .  S
C798        C799   1.404       .  A
C798        H803   1.084       .  S
C799        C800   1.419       .  A
C800        N801   1.435       .  S
N801        H805   1.041       .  S
N801        H806   1.047       .  S
N804        H807   1.046       .  S
N804        H808   1.045       .  S
C809        C810   1.401       .  A
C809        C814   1.404       .  A
C809        H816   1.084       .  S
C810        C811   1.416       .  A
C811        C812   1.403   1_655  A
C811        N818   1.433       .  S
C812        C813   1.403       .  A
C812        H817   1.084       .  S
C813        C814   1.419   1_455  A
C814        N815   1.433       .  S
N815        H819   1.046       .  S
N815        H820   1.046   1_655  S
N818        H821   1.046       .  S
N818        H822   1.046   1_655  S
C823        C824   1.416       .  A
C823        C828   1.403   1_545  A
C823        H830   1.083   1_655  S
C824        C825   1.410       .  A
C825        C826   1.410   1_545  A
C825        N832   1.431       .  S
C826        C827   1.411       .  A
C826        H831   1.084       .  S
C827        C828   1.405       .  A
C828        N829   1.433       .  S
N829        H833   1.046       .  S
N829        H834   1.046   1_565  S
N832        H835   1.046   1_545  S
N832        H836   1.046       .  S
C837        C838   1.417       .  A
C837        C842   1.417       .  A
C837        H844   1.083       .  S
C838        C839   1.405       .  A
C839        C840   1.397       .  A
C839        N846   1.433       .  S
C840        C841   1.407       .  A
C840        H845   1.085       .  S
C841        C842   1.405       .  A
C842        N843   1.436       .  S
N843        H847   1.045       .  S
N843        H848   1.046       .  S
N846        H849   1.046       .  S
N846        H850   1.046       .  S
C851        C852   1.407       .  A
C851        C856   1.413       .  A
C851        H858   1.084       .  S
C852        C853   1.402       .  A
C853        C854   1.393       .  A
C853        N860   1.432       .  S
C854        C855   1.405       .  A
C854        H859   1.084       .  S
C855        C856   1.414       .  A
C856        N857   1.437       .  S
N857        H861   1.046       .  S
N857        H862   1.045       .  S
N860        H863   1.046       .  S
N860        H864   1.046       .  S
C865        C866   1.412       .  A
C865        C870   1.414       .  A
C865        H872   1.083       .  S
C866        C867   1.426       .  A
C867        C868   1.403       .  A
C867        N874   1.433       .  S
C868        C869   1.406       .  A
C868        H873   1.084       .  S
C869        C870   1.413       .  A
C870        N871   1.432       .  S
N871        H875   1.046       .  S
N871        H876   1.045   1_565  S
N874        H877   1.045       .  S
N874        H878   1.045       .  S
C879        C880   1.411       .  A
C879        C884   1.405       .  A
C879        H886   1.083       .  S
C880        C881   1.416       .  A
C881        C882   1.414       .  A
C881        N888   1.431       .  S
C882        C883   1.409       .  A
C882        H887   1.083       .  S
C883        C884   1.413       .  A
C884        N885   1.433       .  S
N885        H889   1.046       .  S
N885        H890   1.046       .  S
N888        H891   1.046       .  S
N888        H892   1.046       .  S
C893        C894   1.410       .  A
C893        C898   1.413       .  A
C893        H900   1.083   1_655  S
C894        C895   1.414       .  A
C895        C896   1.406       .  A
C895        N902   1.433       .  S
C896        C897   1.411       .  A
C896        H901   1.083       .  S
C897        C898   1.415       .  A
C898        N899   1.432       .  S
N899        H903   1.046   1_655  S
N899        H904   1.046       .  S
N902        H905   1.046       .  S
N902        H906   1.045       .  S
C907        C908   1.417       .  A
C907        C912   1.415       .  A
C907        H914   1.083       .  S
C908        C909   1.413       .  A
C909        C910   1.396       .  A
C909        N916   1.433       .  S
C910        C911   1.407       .  A
C910        H915   1.084       .  S
C911        C912   1.404       .  A
C912        N913   1.436       .  S
N913        H917   1.046       .  S
N913        H918   1.045       .  S
N916        H919   1.046       .  S
N916        H920   1.044       .  S
C921        C922   1.409       .  A
C921        C926   1.416       .  A
C921        H928   1.083       .  S
C922        C923   1.425       .  A
C923        C924   1.402       .  A
C923        N930   1.433       .  S
C924        C925   1.403       .  A
C924        H929   1.084       .  S
C925        C926   1.418       .  A
C926        N927   1.436       .  S
N927        H931   1.045       .  S
N927        H932   1.045       .  S
N930        H933   1.045       .  S
N930        H934   1.045       .  S
C935        C936   1.411       .  A
C935        C940   1.420       .  A
C935        H942   1.083       .  S
C936        C937   1.420       .  A
C937        C938   1.407       .  A
C937        N944   1.433       .  S
C938        C939   1.406       .  A
C938        H943   1.084       .  S
C939        C940   1.420       .  A
C940        N941   1.437       .  S
N941        H945   1.046       .  S
N941        H946   1.045       .  S
N944        H947   1.046       .  S
N944        H948   1.046       .  S
C949        C950   1.406       .  A
C949        C954   1.395       .  A
C949        H956   1.084       .  S
C950        C951   1.413       .  A
C951        C952   1.413       .  A
C951        N958   1.437       .  S
C952        C953   1.407       .  A
C952        H957   1.084       .  S
C953        C954   1.405       .  A
C954        N955   1.432       .  S
N955        H959   1.046       .  S
N955        H960   1.046       .  S
N958        H961   1.045       .  S
N958        H962   1.046       .  S
C963        C964   1.404       .  A
C963        C968   1.408       .  A
C963        H970   1.084       .  S
C964        C965   1.419       .  A
C965        C966   1.397       .  A
C965        N972   1.435       .  S
C966        C967   1.398       .  A
C966        H971   1.084       .  S
C967        C968   1.412       .  A
C968        N969   1.432       .  S
N969        H973   1.046       .  S
N969        H974   1.046       .  S
N972        H975   1.046       .  S
N972        H976   1.046       .  S
C977        C978   1.406       .  A
C977        C982   1.403       .  A
C977        H984   1.084       .  S
C978        C979   1.421       .  A
C979        C980   1.405       .  A
C979        N986   1.429       .  S
C980        C981   1.407       .  A
C980        H985   1.083       .  S
C981        C982   1.425       .  A
C982        N983   1.433       .  S
N983        H987   1.046       .  S
N983        H988   1.044       .  S
N986        H989   1.048       .  S
N986        H990   1.037       .  S
C991        C992   1.407       .  A
C991        C996   1.412       .  A
C991        H998   1.084       .  S
C992        C993   1.411       .  A
C993        C994   1.405       .  A
C993       N1000   1.433       .  S
C994        C995   1.409       .  A
C994        H999   1.083       .  S
C995        C996   1.417       .  A
C996        N997   1.432       .  S
N997       H1001   1.046       .  S
N997       H1002   1.045       .  S
N1000      H1003   1.046       .  S
N1000      H1004   1.046       .  S
C1005      C1006   1.411       .  A
C1005      C1010   1.417       .  A
C1005      H1012   1.083       .  S
C1006      C1007   1.418       .  A
C1007      C1008   1.403       .  A
C1007      N1014   1.433       .  S
C1008      C1009   1.406       .  A
C1008      H1013   1.084       .  S
C1009      C1010   1.416       .  A
C1010      N1011   1.432       .  S
N1011      H1015   1.046       .  S
N1011      H1016   1.045       .  S
N1014      H1017   1.046       .  S
N1014      H1018   1.046       .  S
C1019      C1020   1.409       .  A
C1019      C1024   1.413       .  A
C1019      H1026   1.083       .  S
C1020      C1021   1.419       .  A
C1021      C1022   1.405       .  A
C1021      N1028   1.433       .  S
C1022      C1023   1.404       .  A
C1022      H1027   1.084       .  S
C1023      C1024   1.416       .  A
C1024      N1025   1.431   1_554  S
N1025      H1029   1.045       .  S
N1025      H1030   1.045       .  S
N1028      H1031   1.046       .  S
N1028      H1032   1.046       .  S
C1033      C1034   1.402   1_554  A
C1033      C1038   1.412       .  A
C1033      H1040   1.084       .  S
C1034      C1035   1.417       .  A
C1035      C1036   1.407   1_656  A
C1035      N1042   1.433   1_655  S
C1036      C1037   1.405       .  A
C1036      H1041   1.083       .  S
C1037      C1038   1.423   1_455  A
C1038      N1039   1.432       .  S
N1039      H1043   1.045       .  S
N1039      H1044   1.046       .  S
N1042      H1045   1.046       .  S
N1042      H1046   1.046   1_455  S
C1047      C1048   1.405       .  A
C1047      C1052   1.412       .  A
C1047      H1054   1.084       .  S
C1048      C1049   1.406       .  A
C1049      C1050   1.395       .  A
C1049      N1056   1.431       .  S
C1050      C1051   1.402       .  A
C1050      H1055   1.084       .  S
C1051      C1052   1.414       .  A
C1052      N1053   1.436       .  S
N1053      H1057   1.045       .  S
N1053      H1058   1.046       .  S
N1056      H1059   1.046       .  S
N1056      H1060   1.045       .  S
C1061      C1062   1.407       .  A
C1061      C1066   1.412       .  A
C1061      H1068   1.084   1_655  S
C1062      C1063   1.412       .  A
C1063      C1064   1.409       .  A
C1063      N1070   1.433       .  S
C1064      C1065   1.410       .  A
C1064      H1069   1.083       .  S
C1065      C1066   1.418       .  A
C1066      N1067   1.432       .  S
N1067      H1071   1.046       .  S
N1067      H1072   1.046   1_655  S
N1070      H1073   1.046       .  S
N1070      H1074   1.045       .  S
C1075      C1076   1.412       .  A
C1075      C1080   1.417       .  A
C1075      H1082   1.083       .  S
C1076      C1077   1.420       .  A
C1077      C1078   1.406       .  A
C1077      N1084   1.433       .  S
C1078      C1079   1.405       .  A
C1078      H1083   1.084       .  S
C1079      C1080   1.416       .  A
C1080      N1081   1.432       .  S
N1081      H1085   1.046       .  S
N1081      H1086   1.045       .  S
N1084      H1087   1.046       .  S
N1084      H1088   1.046       .  S
C1089      C1090   1.411       .  A
C1089      C1094   1.399       .  A
C1089      H1096   1.083       .  S
C1090      C1091   1.421       .  A
C1091      C1092   1.407       .  A
C1091      N1098   1.432       .  S
C1092      C1093   1.409       .  A
C1092      H1097   1.084       .  S
C1093      C1094   1.412       .  A
C1094      N1095   1.432       .  S
N1095      H1099   1.045       .  S
N1095      H1100   1.045       .  S
N1098      H1101   1.047       .  S
N1098      H1102   1.044       .  S
C1103      C1104   1.399       .  A
C1103      C1108   1.398       .  A
C1103      H1110   1.084       .  S
C1104      C1105   1.422       .  A
C1105      C1106   1.414       .  A
C1105      N1112   1.432       .  S
C1106      C1107   1.401       .  A
C1106      H1111   1.083       .  S
C1107      C1108   1.421       .  A
C1108      N1109   1.434       .  S
N1109      H1113   1.046       .  S
N1109      H1114   1.045       .  S
N1112      H1115   1.046       .  S
N1112      H1116   1.045       .  S
C1117      C1118   1.412       .  A
C1117      C1122   1.412       .  A
C1117      H1124   1.083       .  S
C1118      C1119   1.405       .  A
C1119      C1120   1.391       .  A
C1119      N1126   1.433       .  S
C1120      C1121   1.411       .  A
C1120      H1125   1.084       .  S
C1121      C1122   1.410       .  A
C1122      N1123   1.432       .  S
N1123      H1127   1.045       .  S
N1123      H1128   1.046       .  S
N1126      H1129   1.045       .  S
N1126      H1130   1.046       .  S
C1131      C1132   1.405       .  A
C1131      C1136   1.406       .  A
C1131      H1138   1.084       .  S
C1132      C1133   1.413   1_545  A
C1133      C1134   1.410   1_565  A
C1133      N1140   1.432       .  S
C1134      C1135   1.408       .  A
C1134      H1139   1.083       .  S
C1135      C1136   1.419       .  A
C1136      N1137   1.433       .  S
N1137      H1141   1.046       .  S
N1137      H1142   1.046       .  S
N1140      H1143   1.045       .  S
N1140      H1144   1.046       .  S
C1145      C1146   1.409       .  A
C1145      C1150   1.407       .  A
C1145      H1152   1.083       .  S
C1146      C1147   1.416       .  A
C1147      C1148   1.412       .  A
C1147      N1154   1.432       .  S
C1148      C1149   1.408       .  A
C1148      H1153   1.084       .  S
C1149      C1150   1.415       .  A
C1150      N1151   1.439       .  S
N1151      H1155   1.045       .  S
N1151      H1156   1.046       .  S
N1154      H1157   1.046       .  S
N1154      H1158   1.046       .  S
C1159      C1160   1.412       .  A
C1159      C1164   1.406       .  A
C1159      H1166   1.083       .  S
C1160      C1161   1.411       .  A
C1161      C1162   1.413       .  A
C1161      N1168   1.432       .  S
C1162      C1163   1.414       .  A
C1162      H1167   1.083       .  S
C1163      C1164   1.411       .  A
C1164      N1165   1.432       .  S
N1165      H1169   1.045       .  S
N1165      H1170   1.046   1_565  S
N1168      H1171   1.046       .  S
N1168      H1172   1.046       .  S
C1173      C1174   1.407       .  A
C1173      C1178   1.412       .  A
C1173      H1180   1.084       .  S
C1174      C1175   1.414       .  A
C1175      C1176   1.407       .  A
C1175      N1182   1.438       .  S
C1176      C1177   1.409       .  A
C1176      H1181   1.083       .  S
C1177      C1178   1.416       .  A
C1178      N1179   1.431       .  S
N1179      H1183   1.046       .  S
N1179      H1184   1.044       .  S
N1182      H1185   1.046       .  S
N1182      H1186   1.046       .  S
C1187      C1188   1.412       .  A
C1187      C1192   1.408       .  A
C1187      H1194   1.083       .  S
C1188      C1189   1.415       .  A
C1189      C1190   1.409       .  A
C1189      N1196   1.431       .  S
C1190      C1191   1.406       .  A
C1190      H1195   1.084       .  S
C1191      C1192   1.409       .  A
C1192      N1193   1.433       .  S
N1193      H1197   1.045       .  S
N1193      H1198   1.046       .  S
N1196      H1199   1.045       .  S
N1196      H1200   1.045       .  S
C1201      C1202   1.398       .  A
C1201      C1206   1.397       .  A
C1201      H1208   1.083       .  S
C1202      C1203   1.413       .  A
C1203      C1204   1.411       .  A
C1203      N1210   1.437       .  S
C1204      C1205   1.405       .  A
C1204      H1209   1.083       .  S
C1205      C1206   1.416       .  A
C1206      N1207   1.435       .  S
N1207      H1211   1.046       .  S
N1207      H1212   1.046       .  S
N1210      H1213   1.046       .  S
N1210      H1214   1.045       .  S
C1215      C1216   1.409       .  A
C1215      C1220   1.405       .  A
C1215      H1222   1.083       .  S
C1216      C1217   1.417       .  A
C1217      C1218   1.417       .  A
C1217      N1224   1.431       .  S
C1218      C1219   1.411       .  A
C1218      H1223   1.083       .  S
C1219      C1220   1.414       .  A
C1220      N1221   1.433       .  S
N1221      H1225   1.046       .  S
N1221      H1226   1.046       .  S
N1224      H1227   1.046       .  S
N1224      H1228   1.046       .  S
C1229      C1230   1.411       .  A
C1229      C1234   1.405       .  A
C1229      H1236   1.083       .  S
C1230      C1231   1.412       .  A
C1231      C1232   1.409       .  A
C1231      N1238   1.432       .  S
C1232      C1233   1.412       .  A
C1232      H1237   1.084       .  S
C1233      C1234   1.409       .  A
C1234      N1235   1.432       .  S
N1235      H1239   1.046       .  S
N1235      H1240   1.045       .  S
N1238      H1241   1.046       .  S
N1238      H1242   1.045       .  S
C1243      C1244   1.409       .  A
C1243      C1248   1.413       .  A
C1243      H1250   1.083       .  S
C1244      C1245   1.419       .  A
C1245      C1246   1.406       .  A
C1245      N1252   1.433       .  S
C1246      C1247   1.405       .  A
C1246      H1251   1.084       .  S
C1247      C1248   1.416       .  A
C1248      N1249   1.431       .  S
N1249      H1253   1.045       .  S
N1249      H1254   1.046       .  S
N1252      H1255   1.045       .  S
N1252      H1256   1.046       .  S
C1257      C1258   1.409       .  A
C1257      C1262   1.408   1_556  A
C1257      H1264   1.084       .  S
C1258      C1259   1.407       .  A
C1259      C1260   1.401   1_556  A
C1259      N1266   1.433       .  S
C1260      C1261   1.412       .  A
C1260      H1265   1.083       .  S
C1261      C1262   1.411       .  A
C1262      N1263   1.432       .  S
N1263      H1267   1.046       .  S
N1263      H1268   1.046   1_554  S
N1266      H1269   1.046   1_556  S
N1266      H1270   1.046       .  S
C1271      C1272   1.407       .  A
C1271      C1276   1.410       .  A
C1271      H1278   1.083       .  S
C1272      C1273   1.423       .  A
C1273      C1274   1.408       .  A
C1273      N1280   1.432       .  S
C1274      C1275   1.399   1_655  A
C1274      H1279   1.084       .  S
C1275      C1276   1.416   1_455  A
C1276      N1277   1.433   1_655  S
N1277      H1281   1.046       .  S
N1277      H1282   1.046       .  S
N1280      H1283   1.045       .  S
N1280      H1284   1.046       .  S
C1285      C1286   1.406       .  A
C1285      C1290   1.414       .  A
C1285      H1292   1.084       .  S
C1286      C1287   1.405       .  A
C1287      C1288   1.395       .  A
C1287      N1294   1.433       .  S
C1288      C1289   1.408       .  A
C1288      H1293   1.083       .  S
C1289      C1290   1.415       .  A
C1290      N1291   1.437       .  S
N1291      H1295   1.047       .  S
N1291      H1296   1.042       .  S
N1294      H1297   1.046       .  S
N1294      H1298   1.046       .  S
C1299      C1300   1.407       .  A
C1299      C1304   1.395       .  A
C1299      H1306   1.084       .  S
C1300      C1301   1.402       .  A
C1301      C1302   1.410       .  A
C1301      N1308   1.437       .  S
C1302      C1303   1.417       .  A
C1302      H1307   1.083       .  S
C1303      C1304   1.409       .  A
C1304      N1305   1.439       .  S
N1305      H1309   1.045       .  S
N1305      H1310   1.046       .  S
N1308      H1311   1.046       .  S
N1308      H1312   1.046       .  S
C1313      C1314   1.407       .  A
C1313      C1318   1.405       .  A
C1313      H1320   1.084       .  S
C1314      C1315   1.419       .  A
C1315      C1316   1.417       .  A
C1315      N1322   1.437       .  S
C1316      C1317   1.409       .  A
C1316      H1321   1.083   1_554  S
C1317      C1318   1.418       .  A
C1318      N1319   1.433       .  S
N1319      H1323   1.046       .  S
N1319      H1324   1.046       .  S
N1322      H1325   1.046       .  S
N1322      H1326   1.046       .  S
C1327      C1328   1.408       .  A
C1327      C1332   1.415       .  A
C1327      H1334   1.083       .  S
C1328      C1329   1.411       .  A
C1329      C1330   1.405       .  A
C1329      N1336   1.433       .  S
C1330      C1331   1.411       .  A
C1330      H1335   1.083       .  S
C1331      C1332   1.419       .  A
C1332      N1333   1.437       .  S
N1333      H1337   1.046       .  S
N1333      H1338   1.045       .  S
N1336      H1339   1.046       .  S
N1336      H1340   1.046       .  S
C1341      C1342   1.410       .  A
C1341      C1346   1.402       .  A
C1341      H1348   1.084       .  S
C1342      C1343   1.418       .  A
C1343      C1344   1.415       .  A
C1343      N1350   1.437       .  S
C1344      C1345   1.408       .  A
C1344      H1349   1.084       .  S
C1345      C1346   1.416       .  A
C1346      N1347   1.432       .  S
N1347      H1351   1.042       .  S
N1347      H1352   1.046       .  S
N1350      H1353   1.046       .  S
N1350      H1354   1.046       .  S
C1355      C1356   1.404       .  A
C1355      C1360   1.412       .  A
C1355      H1362   1.084       .  S
C1356      C1357   1.417       .  A
C1357      C1358   1.404       .  A
C1357      N1364   1.433       .  S
C1358      C1359   1.403       .  A
C1358      H1363   1.084       .  S
C1359      C1360   1.420       .  A
C1360      N1361   1.432       .  S
N1361      H1365   1.046       .  S
N1361      H1366   1.045       .  S
N1364      H1367   1.046       .  S
N1364      H1368   1.046       .  S
C1369      C1370   1.404       .  A
C1369      C1374   1.403       .  A
C1369      H1376   1.083       .  S
C1370      C1371   1.421       .  A
C1371      C1372   1.410       .  A
C1371      N1378   1.432       .  S
C1372      C1373   1.403       .  A
C1372      H1377   1.084       .  S
C1373      C1374   1.417       .  A
C1374      N1375   1.433       .  S
N1375      H1379   1.045       .  S
N1375      H1380   1.046       .  S
N1378      H1381   1.046       .  S
N1378      H1382   1.046       .  S
C1383      C1384   1.411       .  A
C1383      C1388   1.408       .  A
C1383      H1390   1.084       .  S
C1384      C1385   1.423       .  A
C1385      C1386   1.407   1_545  A
C1385      N1392   1.432   1_545  S
C1386      C1387   1.406   1_565  A
C1386      H1391   1.084       .  S
C1387      C1388   1.412       .  A
C1388      N1389   1.433       .  S
N1389      H1393   1.046       .  S
N1389      H1394   1.046       .  S
N1392      H1395   1.046   1_565  S
N1392      H1396   1.045       .  S
C1397      C1398   1.414   1_545  A
C1397      C1402   1.407       .  A
C1397      H1404   1.083   1_545  S
C1398      C1399   1.421   1_565  A
C1399      C1400   1.406       .  A
C1399      N1406   1.432       .  S
C1400      C1401   1.409       .  A
C1400      H1405   1.084       .  S
C1401      C1402   1.408       .  A
C1402      N1403   1.433       .  S
N1403      H1407   1.046       .  S
N1403      H1408   1.046       .  S
N1406      H1409   1.045   1_545  S
N1406      H1410   1.045       .  S
C1411      C1412   1.404       .  A
C1411      C1416   1.399       .  A
C1411      H1418   1.084       .  S
C1412      C1413   1.420       .  A
C1413      C1414   1.410   1_565  A
C1413      N1420   1.432   1_565  S
C1414      C1415   1.403       .  A
C1414      H1419   1.084       .  S
C1415      C1416   1.422   1_545  A
C1416      N1417   1.434       .  S
N1417      H1421   1.044   1_565  S
N1417      H1422   1.046       .  S
N1420      H1423   1.046   1_545  S
N1420      H1424   1.045       .  S
C1425      C1426   1.397       .  A
C1425      C1430   1.397       .  A
C1425      H1432   1.082       .  S
C1426      C1427   1.412       .  A
C1427      C1428   1.414       .  A
C1427      N1434   1.437       .  S
C1428      C1429   1.407       .  A
C1428      H1433   1.084       .  S
C1429      C1430   1.409       .  A
C1430      N1431   1.431       .  S
N1431      H1435   1.046       .  S
N1431      H1436   1.046       .  S
N1434      H1437   1.045       .  S
N1434      H1438   1.046       .  S
C1439      C1440   1.407       .  A
C1439      C1444   1.396       .  A
C1439      H1446   1.083       .  S
C1440      C1441   1.415       .  A
C1441      C1442   1.415       .  A
C1441      N1448   1.432       .  S
C1442      C1443   1.412       .  A
C1442      H1447   1.084       .  S
C1443      C1444   1.420       .  A
C1444      N1445   1.434       .  S
N1445      H1449   1.044       .  S
N1445      H1450   1.046       .  S
N1448      H1451   1.046       .  S
N1448      H1452   1.045       .  S
C1453      C1454   1.407       .  A
C1453      C1458   1.402       .  A
C1453      H1460   1.084       .  S
C1454      C1455   1.417       .  A
C1455      C1456   1.417       .  A
C1455      N1462   1.437       .  S
C1456      C1457   1.411       .  A
C1456      H1461   1.083       .  S
C1457      C1458   1.425       .  A
C1458      N1459   1.433       .  S
N1459      H1463   1.045       .  S
N1459      H1464   1.045       .  S
N1462      H1465   1.045       .  S
N1462      H1466   1.045       .  S
C1467      C1468   1.406       .  A
C1467      C1472   1.410       .  A
C1467      H1474   1.083       .  S
C1468      C1469   1.420       .  A
C1469      C1470   1.414       .  A
C1469      N1476   1.432       .  S
C1470      C1471   1.405       .  A
C1470      H1475   1.084       .  S
C1471      C1472   1.417       .  A
C1472      N1473   1.438       .  S
N1473      H1477   1.046   1_565  S
N1473      H1478   1.046       .  S
N1476      H1479   1.046       .  S
N1476      H1480   1.046       .  S
C1481      C1482   1.408       .  A
C1481      C1486   1.407       .  A
C1481      H1488   1.084       .  S
C1482      C1483   1.412       .  A
C1483      C1484   1.409       .  A
C1483      N1490   1.432       .  S
C1484      C1485   1.411       .  A
C1484      H1489   1.083       .  S
C1485      C1486   1.414       .  A
C1486      N1487   1.432   1_455  S
N1487      H1491   1.046   1_655  S
N1487      H1492   1.046       .  S
N1490      H1493   1.046       .  S
N1490      H1494   1.045       .  S
C1495      C1496   1.400       .  A
C1495      C1500   1.401       .  A
C1495      H1502   1.082       .  S
C1496      C1497   1.415       .  A
C1497      C1498   1.406       .  A
C1497      N1504   1.432       .  S
C1498      C1499   1.406       .  A
C1498      H1503   1.084       .  S
C1499      C1500   1.418       .  A
C1500      N1501   1.438       .  S
N1501      H1505   1.046       .  S
N1501      H1506   1.045       .  S
N1504      H1507   1.045       .  S
N1504      H1508   1.046       .  S
C1509      C1510   1.406       .  A
C1509      C1514   1.411       .  A
C1509      H1516   1.083       .  S
C1510      C1511   1.414       .  A
C1511      C1512   1.398       .  A
C1511      N1518   1.437       .  S
C1512      C1513   1.399       .  A
C1512      H1517   1.081       .  S
C1513      C1514   1.409       .  A
C1514      N1515   1.437       .  S
N1515      H1519   1.046       .  S
N1515      H1520   1.045       .  S
N1518      H1521   1.045       .  S
N1518      H1522   1.044       .  S
C1523      C1524   1.411       .  A
C1523      C1528   1.419       .  A
C1523      H1530   1.083       .  S
C1524      C1525   1.419       .  A
C1525      C1526   1.402       .  A
C1525      N1532   1.433       .  S
C1526      C1527   1.404       .  A
C1526      H1531   1.084       .  S
C1527      C1528   1.419       .  A
C1528      N1529   1.437       .  S
N1529      H1533   1.045       .  S
N1529      H1534   1.046       .  S
N1532      H1535   1.046       .  S
N1532      H1536   1.046       .  S
