geometry optimzed in LAMMPS
_audit_creation_date              2020-11-30 
_audit_creation_method            'lammps2cif' 
_symmetry_space_group_name_H-M    'P1' 
_symmetry_Int_Tables_number       1 
_symmetry_cell_setting            triclinic 
loop_ 
_symmetry_equiv_pos_as_xyz 
  x,y,z 
_cell_length_a                    26.617566152544065 
_cell_length_b                    27.02598506023788 
_cell_length_c                    22.821160133093354 
_cell_angle_alpha                 90.22573003249384 
_cell_angle_beta                  89.65244233772563 
_cell_angle_gamma                 89.90805670960223 
loop_ 
_atom_site_label 
_atom_site_type_symbol 
_atom_site_fract_x 
_atom_site_fract_y 
_atom_site_fract_z 
_atom_site_charge 
O1          O  0.44612949  0.22606900  0.94759271    -0.72860
O2          O  0.55947779  0.23386471  0.06374643    -0.73840
O3          O  0.45177651  0.23420349  0.07272966    -0.62460
O4          O  0.55402275  0.22743765  0.93955845    -0.70870
O5          O  0.55244045  0.30936625  0.93770360    -0.70420
O6          O  0.45096885  0.31562676  0.06354881    -0.61680
O7          O  0.55662120  0.31598392  0.05960685    -0.74180
O8          O  0.44723655  0.30803256  0.94088254    -0.72960
Cu9        Cu  0.50281974  0.22725757  0.00620087     1.04560
Cu10       Cu  0.50173553  0.31484623  0.00027656     1.04330
C11         C  0.42916464  0.26617901  0.92578538     0.93340
C12         C  0.57596912  0.27623225  0.07936634     0.92480
C13         C  0.43524400  0.27675134  0.08891380     0.84620
C14         C  0.56976834  0.26841372  0.91838610     0.90890
O15         O  0.26020844  0.61834695  0.07012537    -0.72860
O16         O  0.27362865  0.51646418  0.94604946    -0.73840
O17         O  0.27132382  0.62130081  0.94674087    -0.62460
O18         O  0.26148165  0.51392087  0.06860379    -0.70870
O19         O  0.17864933  0.51173008  0.05780020    -0.70420
O20         O  0.18825177  0.62093332  0.93885570    -0.61680
O21         O  0.19145216  0.51483828  0.93402692    -0.74180
O22         O  0.17717123  0.61778675  0.06308594    -0.72960
Cu23       Cu  0.26937539  0.56764650  0.00823807     1.04560
Cu24       Cu  0.18084245  0.56635622  0.99806797     1.04330
C25         C  0.21731278  0.63447275  0.08653378     0.93340
C26         C  0.23536108  0.49875589  0.92037759     0.92480
C27         C  0.23107313  0.63829827  0.92404055     0.84620
C28         C  0.21870462  0.49523651  0.08128261     0.90890
O29         O  0.44956826  0.88531304  0.06836223    -0.72860
O30         O  0.55102025  0.89331541  0.93569269    -0.73840
O31         O  0.44390190  0.88573602  0.94389345    -0.62460
O32         O  0.55854072  0.89087611  0.06179086    -0.70870
O33         O  0.56164024  0.80889204  0.05853718    -0.70420
O34         O  0.44928955  0.80432785  0.94653120    -0.61680
O35         O  0.55366716  0.81125846  0.93488975    -0.74180
O36         O  0.45591989  0.80344371  0.06843763    -0.72960
Cu37       Cu  0.50079262  0.89197120  0.00282597     1.04560
Cu38       Cu  0.50556267  0.80445914  0.00221086     1.04330
C39         C  0.43571325  0.84313295  0.08786481     0.93340
C40         C  0.56648460  0.85281769  0.91277657     0.92480
C41         C  0.42869404  0.84313511  0.92660437     0.84620
C42         C  0.57803274  0.84986840  0.07840176     0.90890
O43         O  0.74000694  0.51406876  0.06243739    -0.72860
O44         O  0.72309359  0.61814320  0.94326517    -0.73840
O45         O  0.72705293  0.51315308  0.94016570    -0.62460
O46         O  0.73840173  0.61798987  0.06576125    -0.70870
O47         O  0.82090779  0.62119635  0.05167551    -0.70420
O48         O  0.80999646  0.51454702  0.92886772    -0.61680
O49         O  0.80556349  0.62028820  0.92816504    -0.74180
O50         O  0.82288403  0.51534677  0.05278958    -0.72960
Cu51       Cu  0.72938448  0.56576449  0.00321291     1.04560
Cu52       Cu  0.81786712  0.56791550  0.98974207     1.04330
C53         C  0.78319643  0.49821670  0.07723608     0.93340
C54         C  0.76128985  0.63638930  0.91752216     0.92480
C55         C  0.76712646  0.49667218  0.91577790     0.84620
C56         C  0.78133517  0.63646700  0.07800738     0.90890
O57         O  0.23934083  0.01571982  0.56051561    -0.72860
O58         O  0.23611910  0.12026730  0.44115635    -0.73840
O59         O  0.23461087  0.01702805  0.43818255    -0.62460
O60         O  0.24235427  0.11981298  0.56335214    -0.70870
O61         O  0.32567856  0.11904260  0.55740933    -0.70420
O62         O  0.31734874  0.01418732  0.43249814    -0.61680
O63         O  0.31894544  0.11969013  0.43213618    -0.74180
O64         O  0.32202636  0.01147385  0.55818906    -0.72960
Cu65       Cu  0.23558541  0.06826718  0.50119738     1.04560
Cu66       Cu  0.32422772  0.06602162  0.49510950     1.04330
C67         C  0.27987019  0.99581569  0.57837595     0.93340
C68         C  0.27582242  0.13587894  0.41619374     0.92480
C69         C  0.27457269  0.99933578  0.41484659     0.84620
C70         C  0.28500255  0.13666288  0.57892232     0.90890
O71         O  0.94682893  0.74568493  0.44568002    -0.72860
O72         O  0.05623607  0.72292759  0.56581118    -0.73840
O73         O  0.94746692  0.73004901  0.56931161    -0.62220
O74         O  0.05388391  0.73781458  0.44334402    -0.70870
O75         O  0.05971038  0.81877825  0.45910924    -0.70420
O76         O  0.95288396  0.81107533  0.58386483    -0.61680
O77         O  0.05965935  0.80417643  0.58054349    -0.74180
O78         O  0.95291118  0.82649558  0.46117158    -0.72960
Cu79       Cu  0.00083177  0.73115142  0.50575899     1.04560
Cu80       Cu  0.00645535  0.81782156  0.52176917     1.04330
C81         C  0.93248648  0.78995728  0.43496657     0.93340
C82         C  0.07607162  0.76067694  0.59047837     0.92480
C83         C  0.93234063  0.76948347  0.59518899     0.84620
C84         C  0.07406807  0.77958411  0.43232623     0.90890
O85         O  0.76440108  0.01620765  0.42844807    -0.72860
O86         O  0.76316327  0.11520750  0.55818143    -0.73840
O87         O  0.76368646  0.01131407  0.55105541    -0.62460
O88         O  0.76486055  0.11974252  0.43499045    -0.70870
O89         O  0.68186298  0.12066459  0.43329869    -0.70420
O90         O  0.68074040  0.01104667  0.55383334    -0.61680
O91         O  0.68021620  0.11689466  0.55926383    -0.74180
O92         O  0.68121299  0.01518867  0.42875787    -0.72960
Cu93       Cu  0.76665472  0.06568406  0.49326293     1.04560
Cu94       Cu  0.67788701  0.06602835  0.49379739     1.04330
C95         C  0.72311358  0.99955734  0.40820341     0.93340
C96         C  0.72206310  0.13202806  0.57971293     0.92480
C97         C  0.72285751  0.99363316  0.57119494     0.84620
C98         C  0.72401806  0.13737295  0.41487472     0.90890
O99         O  0.94967276  0.39335867  0.57075793    -0.72860
O100        O  0.05552479  0.39278879  0.44354007    -0.73840
O101        O  0.94715972  0.39752826  0.44614482    -0.62460
O102        O  0.05672906  0.38696945  0.56856439    -0.70870
O103        O  0.05195835  0.30543422  0.56099776    -0.70420
O104        O  0.94350308  0.31544015  0.44280842    -0.61680
O105        O  0.04965488  0.31102368  0.43759825    -0.74180
O106        O  0.94643353  0.31127472  0.56573857    -0.72960
Cu107      Cu  0.00254651  0.39572159  0.50735097     1.04560
Cu108      Cu  0.99788128  0.30811938  0.50160936     1.04330
C109        C  0.93119749  0.35221216  0.58767012     0.93340
C110        C  0.06945669  0.35166076  0.42086204     0.92480
C111        C  0.92767400  0.35759947  0.42621585     0.84620
C112        C  0.07095236  0.34380907  0.58456483     0.90890
C113        C  0.24967632  0.31446932  0.21037413     0.00650
C114        C  0.22959101  0.29984422  0.26349839     0.00650
C115        C  0.74602982  0.33013406  0.22217371     0.00650
C116        C  0.76336943  0.31155105  0.27489415     0.00650
C117        C  0.73792058  0.32069916  0.77596824     0.00650
C118        C  0.76109434  0.30093653  0.72729386     0.00650
C119        C  0.74574955  0.80310709  0.22839256     0.00650
C120        C  0.77179154  0.83319981  0.26697534     0.00650
C121        C  0.72071325  0.79762905  0.75570642     0.00650
C122        C  0.74097521  0.81025382  0.70184924     0.00650
C123        C  0.25952636  0.80296416  0.22919415     0.00650
C124        C  0.23716322  0.82650695  0.27631747     0.00650
C125        C  0.25647447  0.81196757  0.78067445     0.00650
C126        C  0.23910046  0.82389562  0.72597129     0.00650
C127        C  0.26492796  0.32070395  0.77936052     0.00650
C128        C  0.24258306  0.30190697  0.72980371     0.00650
C129        C  0.14994817  0.37204593  0.63084993    -0.05700
C130        C  0.11068603  0.33763973  0.62933664     0.00230
C131        C  0.11192680  0.29671417  0.66794350    -0.08340
C132        C  0.15462080  0.28964959  0.70258205    -0.05720
C133        C  0.19572862  0.32234678  0.70219040     0.00220
C134        C  0.19281471  0.36522336  0.66584639    -0.08250
C135        C  0.23327581  0.40399968  0.65801544     0.62130
H136        H  0.14844848  0.40363506  0.60172169     0.12820
H137        H  0.15712981  0.25644753  0.72864547     0.12830
C138        C  0.06924762  0.25950416  0.67235130     0.62360
F139        F  0.21314844  0.45032180  0.66937838    -0.22800
F140        F  0.25059381  0.40274929  0.60073293    -0.20130
F141        F  0.27341725  0.39781184  0.69423185    -0.19810
F142        F  0.07014979  0.22828881  0.62420521    -0.19860
F143        F  0.02354919  0.28381754  0.67517411    -0.20190
F144        F  0.07313638  0.23064496  0.72213252    -0.22860
C145        C  0.19591284  0.35295638  0.34330610    -0.05700
C146        C  0.18534590  0.32475290  0.29275775     0.00230
C147        C  0.13426876  0.31255322  0.28125881    -0.08340
C148        C  0.09737705  0.32504186  0.32287648    -0.05720
C149        C  0.10878588  0.34987994  0.37484317     0.00220
C150        C  0.15844763  0.36628145  0.38431083    -0.08250
C151        C  0.17235865  0.39494133  0.43914939     0.62130
H152        H  0.23445176  0.36235037  0.35236526     0.12820
H153        H  0.05912151  0.31331938  0.31562897     0.12830
C154        C  0.11545427  0.28507917  0.22797135     0.62360
F155        F  0.22310683  0.40600262  0.44074888    -0.22800
F156        F  0.16073070  0.36731447  0.48822961    -0.20130
F157        F  0.14596033  0.43903039  0.44099823    -0.19810
F158        F  0.09194283  0.24182666  0.24518892    -0.19860
F159        F  0.15305711  0.27311329  0.18949306    -0.20190
F160        F  0.08106919  0.31438015  0.19889842    -0.22860
C161        C  0.85143912  0.34257644  0.28822007    -0.05700
C162        C  0.80233812  0.33853768  0.31105939     0.00230
C163        C  0.79470887  0.35088400  0.37134084    -0.08340
C164        C  0.83670236  0.36014034  0.40692483    -0.05720
C165        C  0.88563621  0.35886498  0.38447268     0.00220
C166        C  0.89328310  0.35111673  0.32404962    -0.08250
C167        C  0.94587901  0.34708023  0.29871782     0.62130
H168        H  0.85822877  0.33405218  0.24308733     0.12820
H169        H  0.83129663  0.36673624  0.45338277     0.12830
C170        C  0.74379699  0.35452018  0.40111552     0.62360
F171        F  0.94573648  0.34308916  0.23821258    -0.22800
F172        F  0.96870435  0.30534778  0.32112217    -0.20130
F173        F  0.97351319  0.38848879  0.31372777    -0.19810
F174        F  0.73654843  0.31372906  0.43653063    -0.19860
F175        F  0.70499101  0.35785489  0.36186989    -0.20190
F176        F  0.74187027  0.39680548  0.43548426    -0.22860
C177        C  0.84171184  0.34274213  0.59992784    -0.05700
C178        C  0.88751174  0.35141555  0.62719974     0.00230
C179        C  0.88967691  0.35384758  0.68916222    -0.08340
C180        C  0.84625167  0.34126664  0.72165807    -0.05720
C181        C  0.80097348  0.32828643  0.69376185     0.00220
C182        C  0.79784465  0.33387578  0.63186606    -0.08250
C183        C  0.74996166  0.32998722  0.59653989     0.62130
H184        H  0.84029802  0.34231185  0.55246061     0.12820
H185        H  0.84903835  0.33795211  0.76881474     0.12830
C186        C  0.93658901  0.36707586  0.72304237     0.62360
F187        F  0.74904424  0.36681495  0.55459923    -0.22800
F188        F  0.70763304  0.33621161  0.63048344    -0.20130
F189        F  0.74825398  0.28453404  0.56859879    -0.19810
F190        F  0.97660892  0.37972428  0.68731788    -0.19860
F191        F  0.95067609  0.32731449  0.75720854    -0.20190
F192        F  0.92620719  0.40700004  0.75927953    -0.22860
C193        C  0.69779829  0.24325421  0.68132883    -0.05700
C194        C  0.74670972  0.25094273  0.70268679     0.00230
C195        C  0.78275103  0.21264268  0.69445959    -0.08340
C196        C  0.77144834  0.17339759  0.65656114    -0.05720
C197        C  0.72506874  0.16952260  0.62799919     0.00220
C198        C  0.68600266  0.20294285  0.64434236    -0.08250
C199        C  0.63274832  0.19782256  0.62185484     0.62130
H200        H  0.66951616  0.27101007  0.69035409     0.12820
H201        H  0.80022895  0.14603889  0.64736317     0.12830
C202        C  0.83337066  0.21199777  0.72478089     0.62360
F203        F  0.60092780  0.23343851  0.64531717    -0.22800
F204        F  0.61381864  0.15196312  0.63696791    -0.20130
F205        F  0.63239249  0.20295197  0.56178632    -0.19810
F206        F  0.82818656  0.22695924  0.78223080    -0.19860
F207        F  0.86675941  0.24248115  0.69602985    -0.20190
F208        F  0.85390643  0.16485838  0.72537248    -0.22860
C209        C  0.77297527  0.18137173  0.33918506    -0.05700
C210        C  0.72754890  0.17742554  0.37032070     0.00230
C211        C  0.68995967  0.21355097  0.36101470    -0.08340
C212        C  0.70208080  0.25517030  0.32695375    -0.05720
C213        C  0.74860709  0.26093149  0.29785231     0.00220
C214        C  0.78364226  0.22119870  0.30192218    -0.08250
C215        C  0.83362197  0.21842524  0.27006821     0.62130
H216        H  0.80126404  0.15280270  0.34427951     0.12820
H217        H  0.67589388  0.28486152  0.32774163     0.12830
C218        C  0.63815994  0.21022851  0.38903316     0.62360
F219        F  0.87212636  0.22580041  0.30954279    -0.22800
F220        F  0.83768455  0.25238631  0.22601101    -0.20130
F221        F  0.83926054  0.17211550  0.24466650    -0.19810
F222        F  0.64260027  0.21000716  0.44918318    -0.19860
F223        F  0.61450723  0.16744168  0.37053357    -0.20190
F224        F  0.60767005  0.24975766  0.37426147    -0.22860
C225        C  0.76539902  0.96514262  0.32089519    -0.05700
C226        C  0.72534490  0.96179142  0.36091848     0.00230
C227        C  0.69290486  0.92026148  0.35831476    -0.08340
C228        C  0.70468943  0.88177674  0.31870394    -0.05720
C229        C  0.74875718  0.88241628  0.28418424     0.00220
C230        C  0.77696610  0.92672061  0.28165068    -0.08250
C231        C  0.82147481  0.93369604  0.24110666     0.62130
H232        H  0.78928987  0.99760521  0.32180355     0.12820
H233        H  0.68311038  0.84825610  0.32024697     0.12830
C234        C  0.64911618  0.91399301  0.40071125     0.62360
F235        F  0.86541793  0.92441507  0.27114301    -0.22800
F236        F  0.82246749  0.98180205  0.22048474    -0.20130
F237        F  0.81874370  0.90296392  0.19299375    -0.19810
F238        F  0.61411787  0.95102446  0.39186602    -0.19860
F239        F  0.66622711  0.91614254  0.45781065    -0.20190
F240        F  0.62504473  0.86903584  0.39324541    -0.22860
C241        C  0.68288432  0.91984946  0.61618369    -0.05700
C242        C  0.72480012  0.95114716  0.61245953     0.00230
C243        C  0.76835282  0.93913145  0.64504657    -0.08340
C244        C  0.76976296  0.89388276  0.67462287    -0.05720
C245        C  0.72971555  0.85986363  0.67425111     0.00220
C246        C  0.68429918  0.87415563  0.64571401    -0.08250
C247        C  0.63646743  0.84387393  0.64183572     0.62130
H248        H  0.64903088  0.92989877  0.59282493     0.12820
H249        H  0.80380199  0.88417191  0.69728431     0.12830
C250        C  0.81397195  0.97297197  0.64890619     0.62360
F251        F  0.62250298  0.83922629  0.58373692    -0.22800
F252        F  0.59849022  0.86813068  0.67206803    -0.20130
F253        F  0.64101939  0.79702795  0.66395554    -0.19810
F254        F  0.79886858  0.02105039  0.66059496    -0.19860
F255        F  0.84080982  0.97128746  0.59683796    -0.20190
F256        F  0.84619818  0.95895565  0.69331143    -0.22860
C257        C  0.15257621  0.78641265  0.29332339    -0.05700
C258        C  0.19961541  0.80093065  0.31590916     0.00230
C259        C  0.20576798  0.80076644  0.37797170    -0.08340
C260        C  0.16356817  0.79365408  0.41393497    -0.05720
C261        C  0.11647242  0.78265262  0.39087400     0.00220
C262        C  0.11083692  0.77707831  0.32986305    -0.08250
C263        C  0.06001334  0.76509938  0.30361107     0.62130
H264        H  0.14664855  0.78718486  0.24693169     0.12820
H265        H  0.16748084  0.79683843  0.46102988     0.12830
C266        C  0.25520099  0.80807300  0.40967881     0.62360
F267        F  0.06193064  0.76290766  0.24301467    -0.22800
F268        F  0.02562772  0.80118886  0.31968110    -0.20130
F269        F  0.04361851  0.71973648  0.32389757    -0.19810
F270        F  0.25436319  0.85288852  0.43912532    -0.19860
F271        F  0.29645630  0.80670637  0.37319503    -0.20190
F272        F  0.26129661  0.77050881  0.45000058    -0.22860
C273        C  0.16738951  0.76368226  0.60147538    -0.05700
C274        C  0.12054808  0.75595116  0.62807128     0.00230
C275        C  0.11686029  0.75757297  0.68969499    -0.08340
C276        C  0.15708083  0.77701905  0.72171224    -0.05720
C277        C  0.20237732  0.79099340  0.69423494     0.00220
C278        C  0.20932979  0.77825947  0.63431706    -0.08250
C279        C  0.25978363  0.78026245  0.60342062     0.62130
H280        H  0.17083451  0.75995465  0.55436223     0.12820
H281        H  0.15133411  0.78408711  0.76793525     0.12830
C282        C  0.07117628  0.74054441  0.72335634     0.62360
F283        F  0.26489432  0.73981545  0.56648691    -0.22800
F284        F  0.29914476  0.77843540  0.64258225    -0.20130
F285        F  0.26297350  0.82301740  0.57054285    -0.19810
F286        F  0.08568856  0.70581558  0.76433972    -0.19860
F287        F  0.03586013  0.71873511  0.68745038    -0.20190
F288        F  0.04988681  0.78053835  0.75219255    -0.22860
C289        C  0.84226131  0.75504513  0.60007208    -0.05700
C290        C  0.88545004  0.76842857  0.63049970     0.00230
C291        C  0.88066033  0.78724791  0.68820547    -0.08340
C292        C  0.83218315  0.79287780  0.71264217    -0.05720
C293        C  0.78849655  0.78638230  0.67890165     0.00220
C294        C  0.79410567  0.76715243  0.62071179    -0.08250
C295        C  0.75244709  0.75842364  0.57685182     0.62130
H296        H  0.84633112  0.73978709  0.55619855     0.12820
H297        H  0.82811314  0.80724426  0.75671469     0.12830
C298        C  0.92627567  0.80031036  0.72420035     0.62360
F299        F  0.76157555  0.78570191  0.52682492    -0.22800
F300        F  0.70603047  0.77136473  0.59721044    -0.20130
F301        F  0.75126330  0.70878809  0.56183151    -0.19810
F302        F  0.95446306  0.83626719  0.69640740    -0.19860
F303        F  0.95478669  0.75822129  0.73128135    -0.20190
F304        F  0.91334446  0.81805911  0.77926081    -0.22860
C305        C  0.89608875  0.78060731  0.33537684    -0.05700
C306        C  0.89150243  0.79916359  0.39251015     0.00230
C307        C  0.84874919  0.82751510  0.40735473    -0.08340
C308        C  0.80962425  0.83070336  0.36674868    -0.05720
C309        C  0.81520173  0.81716416  0.30692642     0.00220
C310        C  0.86186631  0.79386865  0.29081311    -0.08250
C311        C  0.88147959  0.78743940  0.22897469     0.62130
H312        H  0.92979480  0.75999511  0.32406699     0.12820
H313        H  0.77498817  0.84705393  0.38178942     0.12830
C314        C  0.84506856  0.85669722  0.46435028     0.62360
F315        F  0.93247168  0.79755674  0.22658084    -0.22800
F316        F  0.85900527  0.81977207  0.19112338    -0.20130
F317        F  0.87449838  0.73910275  0.21090121    -0.19810
F318        F  0.87982766  0.89464652  0.46341852    -0.19860
F319        F  0.85481680  0.82653654  0.51134993    -0.20190
F320        F  0.79801682  0.87763313  0.47271719    -0.22860
C321        C  0.30329592  0.21374236  0.36694439    -0.05700
C322        C  0.27001887  0.17354312  0.36951414     0.00230
C323        C  0.22771027  0.17298994  0.33205496    -0.08340
C324        C  0.21736165  0.21491797  0.29856151    -0.05720
C325        C  0.24912052  0.25624347  0.29707979     0.00220
C326        C  0.29313964  0.25587250  0.33241485    -0.08250
C327        C  0.32915214  0.29894611  0.33906684     0.62130
H328        H  0.33574779  0.21385343  0.39544586     0.12820
H329        H  0.18315039  0.21576433  0.27344620     0.12830
C330        C  0.19258399  0.12877130  0.32714931     0.62360
F331        F  0.33366155  0.31081857  0.39784157    -0.22800
F332        F  0.31391816  0.34101773  0.31038287    -0.20130
F333        F  0.37584826  0.28521584  0.31756832    -0.19810
F334        F  0.15905708  0.12867651  0.37367605    -0.19860
F335        F  0.21983898  0.08512478  0.32665840    -0.20190
F336        F  0.16510383  0.13021178  0.27584075    -0.22860
C337        C  0.26901254  0.16847105  0.67793608    -0.05700
C338        C  0.28601185  0.17779744  0.62115368     0.00230
C339        C  0.29437845  0.22691719  0.60300647    -0.08340
C340        C  0.28186182  0.26560152  0.64160105    -0.05720
C341        C  0.26287074  0.25700315  0.69836090     0.00220
C342        C  0.25644167  0.20690999  0.71694824    -0.08250
C343        C  0.23348053  0.19006933  0.77432975     0.62130
H344        H  0.26238259  0.13037478  0.69071756     0.12820
H345        H  0.28413558  0.30334060  0.62618801     0.12830
C346        C  0.31332649  0.23842166  0.54177362     0.62360
F347        F  0.19255966  0.16000748  0.76309709    -0.22800
F348        F  0.21711739  0.22814258  0.80897933    -0.20130
F349        F  0.26871620  0.16321697  0.80522247    -0.19810
F350        F  0.27863151  0.22239507  0.50118553    -0.19860
F351        F  0.35865050  0.21462084  0.53194389    -0.20190
F352        F  0.32078102  0.28862609  0.53364136    -0.22860
C353        C  0.22569300  0.94475597  0.64209443    -0.05700
C354        C  0.27475921  0.95415628  0.62177154     0.00230
C355        C  0.31413933  0.92279422  0.64171020    -0.08340
C356        C  0.30196688  0.88223949  0.67861870    -0.05720
C357        C  0.25208997  0.87189668  0.69588061     0.00220
C358        C  0.21374367  0.90564972  0.67943182    -0.08250
C359        C  0.15919697  0.90257626  0.69955733     0.62130
H360        H  0.19511817  0.96847567  0.62849017     0.12820
H361        H  0.33117057  0.85691772  0.69200953     0.12830
C362        C  0.36831601  0.93066857  0.62311458     0.62360
F363        F  0.14025006  0.94956451  0.71009163    -0.22800
F364        F  0.15352285  0.87675641  0.75097555    -0.20130
F365        F  0.13087206  0.88044004  0.65620401    -0.19810
F366        F  0.38395026  0.97722689  0.64045246    -0.19860
F367        F  0.37255017  0.92619826  0.56289217    -0.20190
F368        F  0.40027623  0.89632570  0.64809765    -0.22860
C369        C  0.29893712  0.89127584  0.30926153    -0.05700
C370        C  0.24939569  0.87908951  0.29363114     0.00230
C371        C  0.21071995  0.91356519  0.30778358    -0.08340
C372        C  0.22143881  0.95276166  0.34583959    -0.05720
C373        C  0.26981613  0.96113708  0.36785063     0.00220
C374        C  0.31019995  0.93178931  0.34587924    -0.08250
C375        C  0.36463579  0.94066238  0.36282860     0.62130
H376        H  0.32858212  0.86578952  0.29877898     0.12820
H377        H  0.19076748  0.97680945  0.35920564     0.12830
C378        C  0.15704479  0.91081140  0.28588493     0.62360
F379        F  0.39728627  0.90864873  0.33413136    -0.22800
F380        F  0.37047742  0.93365058  0.42240772    -0.20130
F381        F  0.37847484  0.98832562  0.34795541    -0.19810
F382        F  0.12550462  0.89750043  0.33153339    -0.19860
F383        F  0.15116520  0.87792845  0.24030615    -0.20190
F384        F  0.14246311  0.95682102  0.26558684    -0.22860
C385        C  0.80633980  0.37888678  0.16012320    -0.05700
C386        C  0.76456798  0.37902159  0.19838447     0.00230
C387        C  0.73770295  0.42420285  0.20576497    -0.08340
C388        C  0.74723455  0.46300446  0.16668607    -0.05720
C389        C  0.78472842  0.46004057  0.12352868     0.00220
C390        C  0.81755838  0.41895651  0.12302508    -0.08250
C391        C  0.86259867  0.41614366  0.08204231     0.62130
H392        H  0.82900417  0.34611705  0.15662041     0.12820
H393        H  0.72503055  0.49657081  0.16929646     0.12830
C394        C  0.70293050  0.43448870  0.25722270     0.62360
F395        F  0.88925417  0.37250512  0.08871932    -0.22800
F396        F  0.89483812  0.45495124  0.09386860    -0.20130
F397        F  0.84700813  0.41882235  0.02448577    -0.19810
F398        F  0.73098291  0.43444439  0.30778643    -0.19860
F399        F  0.66540882  0.39991303  0.26086873    -0.20190
F400        F  0.67988614  0.48034350  0.25338935    -0.22860
C401        C  0.78609519  0.76467504  0.14165617    -0.05700
C402        C  0.76729574  0.75784329  0.19903590     0.00230
C403        C  0.76122182  0.70836088  0.21925259    -0.08340
C404        C  0.76515056  0.66934015  0.17819421    -0.05720
C405        C  0.78414752  0.67707000  0.12151022     0.00220
C406        C  0.80090532  0.72475415  0.10596416    -0.08250
C407        C  0.83743115  0.73324880  0.05544626     0.62130
H408        H  0.79124627  0.80192835  0.12561447     0.12820
H409        H  0.75544452  0.63201589  0.19134579     0.12830
C410        C  0.75336531  0.69352245  0.28254245     0.62360
F411        F  0.84847078  0.78295106  0.04864121    -0.22800
F412        F  0.81891234  0.71584058  0.00304357    -0.20130
F413        F  0.88177815  0.70860846  0.06721630    -0.19810
F414        F  0.70705576  0.67102398  0.28904571    -0.19860
F415        F  0.75672664  0.73280657  0.32090819    -0.20190
F416        F  0.79018641  0.65985024  0.29787444    -0.22860
C417        C  0.73317994  0.76188922  0.85530537    -0.05700
C418        C  0.73738168  0.75436282  0.79399044     0.00230
C419        C  0.74902014  0.70505713  0.77491148    -0.08340
C420        C  0.76455921  0.67009967  0.81690538    -0.05720
C421        C  0.75384446  0.67739839  0.87639167     0.00220
C422        C  0.73202220  0.72244377  0.89458061    -0.08250
C423        C  0.70056667  0.72730564  0.95041429     0.62130
H424        H  0.72452330  0.79792483  0.87261542     0.12820
H425        H  0.77756407  0.63391787  0.80267805     0.12830
C426        C  0.73735504  0.68399996  0.71508744     0.62360
F427        F  0.68436255  0.77542813  0.95985995    -0.22800
F428        F  0.72674488  0.71261062  0.99908973    -0.20130
F429        F  0.65843091  0.69777535  0.94518125    -0.19810
F430        F  0.78144152  0.67683695  0.68393395    -0.19860
F431        F  0.70487996  0.71375642  0.68457201    -0.20190
F432        F  0.71379773  0.63859562  0.72095538    -0.22860
C433        C  0.76857305  0.40699522  0.90271346    -0.05700
C434        C  0.76452483  0.45329252  0.87653215     0.00230
C435        C  0.76013475  0.45666366  0.81502551    -0.08340
C436        C  0.75648491  0.41252388  0.78175592    -0.05720
C437        C  0.75696144  0.36558009  0.80866975     0.00220
C438        C  0.76746036  0.36324445  0.86973840    -0.08250
C439        C  0.77955779  0.31602304  0.90226055     0.62130
H440        H  0.77364548  0.40501350  0.94976767     0.12820
H441        H  0.75149448  0.41463189  0.73487590     0.12830
C442        C  0.75808671  0.50674933  0.78555405     0.62360
F443        F  0.81990102  0.32379534  0.93920148    -0.22800
F444        F  0.79309128  0.27832748  0.86480454    -0.20130
F445        F  0.73851573  0.30180271  0.93550543    -0.19810
F446        F  0.80183808  0.53248400  0.79698687    -0.19860
F447        F  0.71757480  0.53344630  0.80712078    -0.20190
F448        F  0.75304033  0.50246670  0.72542042    -0.22860
C449        C  0.61183221  0.81400036  0.16830692    -0.05700
C450        C  0.61871370  0.84748246  0.12239352     0.00230
C451        C  0.66568005  0.87125166  0.11585443    -0.08340
C452        C  0.70509703  0.85823793  0.15408842    -0.05720
C453        C  0.69906773  0.82242713  0.19841358     0.00220
C454        C  0.65038581  0.80192724  0.20733742    -0.08250
C455        C  0.63585329  0.76715708  0.25637035     0.62130
H456        H  0.57551252  0.79625301  0.17332067     0.12820
H457        H  0.74181736  0.87415318  0.14753885     0.12830
C458        C  0.67495462  0.90773081  0.06667454     0.62360
F459        F  0.59226979  0.78407085  0.28322557    -0.22800
F460        F  0.67176796  0.76391598  0.29897441    -0.20130
F461        F  0.62702694  0.72056728  0.23343055    -0.19810
F462        F  0.64308233  0.94785003  0.07314080    -0.19860
F463        F  0.66619160  0.88511018  0.01323500    -0.20190
F464        F  0.72385866  0.92512088  0.06653727    -0.22860
C465        C  0.35245126  0.80708716  0.21653233    -0.05700
C466        C  0.30488884  0.82322417  0.19752281     0.00230
C467        C  0.30232670  0.85102068  0.14476933    -0.08340
C468        C  0.34637455  0.85784965  0.11132368    -0.05720
C469        C  0.39302980  0.83961970  0.12944778     0.00220
C470        C  0.39668109  0.81536561  0.18389324    -0.08250
C471        C  0.44716276  0.79889858  0.20761112     0.62130
H472        H  0.35491554  0.78759265  0.25751225     0.12820
H473        H  0.34407728  0.87669378  0.06952656     0.12830
C474        C  0.25466506  0.87331271  0.12051756     0.62360
F475        F  0.44321045  0.78149110  0.26442130    -0.22800
F476        F  0.48005493  0.83849304  0.20770552    -0.20130
F477        F  0.46680508  0.76139065  0.17305570    -0.19810
F478        F  0.21669167  0.87531836  0.16139226    -0.19860
F479        F  0.23896666  0.84575366  0.07287076    -0.20190
F480        F  0.26375307  0.92134288  0.10250832    -0.22860
C481        C  0.34297317  0.79437664  0.80660872    -0.05700
C482        C  0.30554483  0.83084464  0.80423144     0.00230
C483        C  0.31348296  0.87559854  0.83609881    -0.08340
C484        C  0.35651427  0.87928276  0.87180192    -0.05720
C485        C  0.38760324  0.83818721  0.88280032     0.00220
C486        C  0.37811924  0.79338889  0.85172494    -0.08250
C487        C  0.39920387  0.74297460  0.86909977     0.62130
H488        H  0.33971883  0.76251873  0.77823529     0.12820
H489        H  0.36350036  0.91369383  0.89491592     0.12830
C490        C  0.27987466  0.92083125  0.83484484     0.62360
F491        F  0.38014926  0.70490933  0.83512089    -0.22800
F492        F  0.38614108  0.73303193  0.92663797    -0.20130
F493        F  0.45058471  0.74165911  0.86300329    -0.19810
F494        F  0.23726434  0.91446303  0.80233757    -0.19860
F495        F  0.30647630  0.96000663  0.81126662    -0.20190
F496        F  0.26536617  0.93305328  0.89139029    -0.22860
C497        C  0.64278488  0.88082298  0.85790470    -0.05700
C498        C  0.59873887  0.85246647  0.85959641     0.00230
C499        C  0.59124320  0.81625429  0.81593939    -0.08340
C500        C  0.63189746  0.80095235  0.78199291    -0.05720
C501        C  0.67765424  0.82630958  0.78184119     0.00220
C502        C  0.68296720  0.86835403  0.81969221    -0.08250
C503        C  0.73171880  0.89636979  0.82880619     0.62130
H504        H  0.64799194  0.90945303  0.89071328     0.12820
H505        H  0.62832896  0.76675888  0.75740356     0.12830
C506        C  0.54167690  0.79085070  0.80581249     0.62360
F507        F  0.72570185  0.94462830  0.81021367    -0.22800
F508        F  0.77190339  0.87573477  0.79936999    -0.20130
F509        F  0.74356879  0.89682060  0.88780570    -0.19810
F510        F  0.50226874  0.81774340  0.82950631    -0.19860
F511        F  0.54339931  0.74411470  0.83009635    -0.20190
F512        F  0.53304725  0.78646793  0.74625951    -0.22860
C513        C  0.25279760  0.66939378  0.17653383    -0.05700
C514        C  0.21650141  0.67317846  0.13256691     0.00230
C515        C  0.18702507  0.71662691  0.12922963    -0.08340
C516        C  0.20149959  0.75785250  0.16293896    -0.05720
C517        C  0.23982660  0.75509829  0.20506357     0.00220
C518        C  0.26305966  0.70856160  0.21495568    -0.08250
C519        C  0.29902454  0.69762530  0.26421866     0.62130
H520        H  0.27385227  0.63518496  0.18071980     0.12820
H521        H  0.18286933  0.79284259  0.15619524     0.12830
C522        C  0.14110401  0.71986208  0.09043229     0.62360
F523        F  0.28579401  0.65347996  0.29069127    -0.22800
F524        F  0.29785376  0.73354412  0.30687303    -0.20130
F525        F  0.34729542  0.69317240  0.24204751    -0.19810
F526        F  0.10661058  0.68447067  0.10756623    -0.19860
F527        F  0.15426909  0.71175457  0.03276459    -0.20190
F528        F  0.11800616  0.76572201  0.09425744    -0.22860
C529        C  0.22923732  0.40535086  0.20835142    -0.05700
C530        C  0.23028905  0.35959384  0.17809894     0.00230
C531        C  0.22217424  0.35998995  0.11607900    -0.08340
C532        C  0.21419590  0.40544287  0.08789931    -0.05720
C533        C  0.21656353  0.45036992  0.11779333     0.00220
C534        C  0.22272631  0.45080530  0.17905826    -0.08250
C535        C  0.22328934  0.49928370  0.21265189     0.62130
H536        H  0.23785463  0.40585096  0.25450638     0.12820
H537        H  0.21019203  0.40675767  0.04068616     0.12830
C538        C  0.22799223  0.31479411  0.07680632     0.62360
F539        F  0.22715085  0.49191121  0.27245509    -0.22800
F540        F  0.17925041  0.52493580  0.20216869    -0.20130
F541        F  0.26363842  0.52765917  0.19455123    -0.19810
F542        F  0.20237109  0.27484391  0.09865951    -0.19860
F543        F  0.27814099  0.30345211  0.07152884    -0.20190
F544        F  0.20980587  0.32304825  0.02093271    -0.22860
C545        C  0.19980172  0.42814219  0.86446697    -0.05700
C546        C  0.24184567  0.45753909  0.87711059     0.00230
C547        C  0.28898776  0.44423932  0.85181214    -0.08340
C548        C  0.29171265  0.40178696  0.81651878    -0.05720
C549        C  0.25102725  0.36936891  0.80842511     0.00220
C550        C  0.20369427  0.38291318  0.83375066    -0.08250
C551        C  0.15676995  0.35129182  0.83364906     0.62130
H552        H  0.16371076  0.43870564  0.88290421     0.12820
H553        H  0.32732732  0.39208541  0.79671133     0.12830
C554        C  0.33725176  0.47301550  0.86242450     0.62360
F555        F  0.13196878  0.35491153  0.88703783    -0.22800
F556        F  0.16741332  0.30222295  0.82538598    -0.20130
F557        F  0.12473303  0.36758770  0.79031997    -0.19810
F558        F  0.35217811  0.46730743  0.91996427    -0.19860
F559        F  0.32973337  0.52244341  0.85046936    -0.20190
F560        F  0.37646746  0.45683150  0.82703533    -0.22860
C561        C  0.21435540  0.72574622  0.90283541    -0.05700
C562        C  0.23336333  0.68049528  0.88304367     0.00230
C563        C  0.25294397  0.67680660  0.82551108    -0.08340
C564        C  0.25369431  0.71946604  0.79006073    -0.05720
C565        C  0.23843863  0.76606739  0.81193911     0.00220
C566        C  0.21570487  0.76841464  0.86828271    -0.08250
C567        C  0.19174679  0.81434369  0.89432863     0.62130
H568        H  0.19905094  0.72818032  0.94655837     0.12820
H569        H  0.27017403  0.71763744  0.74661362     0.12830
C570        C  0.27542715  0.62879501  0.80322184     0.62360
F571        F  0.22112258  0.83189707  0.93958784    -0.22800
F572        F  0.14458684  0.80276975  0.91618462    -0.20130
F573        F  0.18540719  0.85114177  0.85377992    -0.19810
F574        F  0.24070159  0.59099715  0.80826362    -0.19860
F575        F  0.31728813  0.61759583  0.83612481    -0.20190
F576        F  0.29013610  0.63197378  0.74507621    -0.22860
C577        C  0.36128819  0.24245164  0.14176904    -0.05700
C578        C  0.39499708  0.28178871  0.13408673     0.00230
C579        C  0.38489126  0.32739105  0.16286684    -0.08340
C580        C  0.33792692  0.33422898  0.18945904    -0.05720
C581        C  0.30096246  0.29713719  0.19076228     0.00220
C582        C  0.31372142  0.24927086  0.16822997    -0.08250
C583        C  0.27870606  0.20521181  0.16485021     0.62130
H584        H  0.36998008  0.20705605  0.12156110     0.12820
H585        H  0.32884640  0.37039517  0.20720254     0.12830
C586        C  0.42139677  0.37061384  0.16331620     0.62360
F587        F  0.27813482  0.18683530  0.10814058    -0.22800
F588        F  0.23008181  0.21646300  0.17968408    -0.20130
F589        F  0.29590621  0.16855585  0.20182357    -0.19810
F590        F  0.41631528  0.39767846  0.11238301    -0.19860
F591        F  0.47030270  0.35403273  0.16812892    -0.20190
F592        F  0.41222088  0.40183455  0.21046936    -0.22860
C593        C  0.66677406  0.28021799  0.09366003    -0.05700
C594        C  0.61898639  0.27990953  0.11897909     0.00230
C595        C  0.61371091  0.28871318  0.17947167    -0.08340
C596        C  0.65609856  0.30374053  0.21100460    -0.05720
C597        C  0.70490145  0.30495524  0.18674996     0.00220
C598        C  0.71017415  0.28956878  0.12678970    -0.08250
C599        C  0.75953710  0.28197968  0.09480817     0.62130
H600        H  0.67014005  0.27310402  0.04699006     0.12820
H601        H  0.64937948  0.31731021  0.25427381     0.12830
C602        C  0.56465063  0.28349062  0.21310699     0.62360
F603        F  0.75593717  0.24291531  0.05555871    -0.22800
F604        F  0.79730785  0.27000572  0.13274590    -0.20130
F605        F  0.77168617  0.32405060  0.06361513    -0.19810
F606        F  0.57131116  0.24973095  0.25777292    -0.19860
F607        F  0.52544733  0.26684220  0.17894766    -0.20190
F608        F  0.55145208  0.32865620  0.23739119    -0.22860
C609        C  0.69067518  0.25404908  0.82923242    -0.05700
C610        C  0.68989147  0.29950879  0.79932532     0.00230
C611        C  0.64452216  0.32710870  0.79841762    -0.08340
C612        C  0.60497969  0.31256532  0.83470519    -0.05720
C613        C  0.60828938  0.27124692  0.87133259     0.00220
C614        C  0.65080077  0.23974676  0.86661751    -0.08250
C615        C  0.65565196  0.19329991  0.90320771     0.62130
H616        H  0.72408074  0.23138910  0.82615473     0.12820
H617        H  0.57138472  0.33536429  0.83615918     0.12830
C618        C  0.63532630  0.37270309  0.76144229     0.62360
F619        F  0.70071179  0.16904465  0.89281961    -0.22800
F620        F  0.61707976  0.16105806  0.88979202    -0.20130
F621        F  0.65342047  0.20536597  0.96211077    -0.19810
F622        F  0.58929240  0.36865984  0.73391886    -0.19860
F623        F  0.67084747  0.37893324  0.71828039    -0.20190
F624        F  0.63465237  0.41418586  0.79711273    -0.22860
C625        C  0.39784952  0.28110192  0.82650512    -0.05700
C626        C  0.38755396  0.26561320  0.88350852     0.00230
C627        C  0.33734285  0.26015738  0.90204114    -0.08340
C628        C  0.29873564  0.27613302  0.86484995    -0.05720
C629        C  0.30847481  0.29470243  0.80830582     0.00220
C630        C  0.35958805  0.29622624  0.78832944    -0.08250
C631        C  0.37806302  0.31674206  0.73041504     0.62130
H632        H  0.43684779  0.28480253  0.81305720     0.12820
H633        H  0.26053060  0.27693572  0.88131792     0.12830
C634        C  0.32517962  0.23966540  0.96206768     0.62360
F635        F  0.41358907  0.35310772  0.74054276    -0.22800
F636        F  0.34091491  0.33746747  0.69761437    -0.20130
F637        F  0.40014026  0.27905681  0.69811076    -0.19810
F638        F  0.34694235  0.26908937  0.00439946    -0.19860
F639        F  0.34418689  0.19219434  0.96647411    -0.20190
F640        F  0.27393140  0.23777623  0.97248940    -0.22860
loop_ 
_geom_bond_atom_site_label_1 
_geom_bond_atom_site_label_2 
_geom_bond_distance 
_geom_bond_site_symmetry_2 
_ccdc_geom_bond_type 
O1           Cu9   2.023   1_556  S
O1           C11   1.278       .  A
O2           Cu9   2.013       .  S
O2           C12   1.277       .  A
O3           Cu9   2.039       .  S
O3           C13   1.283       .  A
O4           Cu9   2.036   1_556  S
O4           C14   1.280       .  A
O5          Cu10   1.964   1_556  S
O5           C14   1.274       .  A
O6          Cu10   1.972       .  S
O6           C13   1.272       .  A
O7          Cu10   1.998       .  S
O7           C12   1.276       .  A
O8          Cu10   2.000   1_556  S
O8           C11   1.277       .  A
Cu9         Cu10   2.372       .  S
C11         C626   1.473       .  S
C12         C594   1.466       .  S
C13         C578   1.488       .  S
C14         C613   1.482       .  S
O15         Cu23   1.978       .  S
O15          C25   1.275       .  A
O16         Cu23   1.981   1_556  S
O16          C26   1.271       .  A
O17         Cu23   2.022   1_556  S
O17          C27   1.278       .  A
O18         Cu23   2.016       .  S
O18          C28   1.278       .  A
O19         Cu24   2.014   1_554  S
O19          C28   1.277       .  A
O20         Cu24   2.013       .  S
O20          C27   1.277       .  A
O21         Cu24   2.033       .  S
O21          C26   1.282       .  A
O22         Cu24   2.031   1_554  S
O22          C25   1.280       .  A
Cu23        Cu24   2.370   1_554  S
C25         C514   1.480       .  S
C26         C546   1.495       .  S
C27         C562   1.479       .  S
C28         C533   1.475       .  S
O29         Cu37   2.026       .  S
O29          C39   1.279       .  A
O30         Cu37   2.028   1_556  S
O30          C40   1.278       .  A
O31         Cu37   2.038   1_556  S
O31          C41   1.283       .  A
O32         Cu37   2.049       .  S
O32          C42   1.283       .  A
O33         Cu38   1.979       .  S
O33          C42   1.274       .  A
O34         Cu38   1.970   1_556  S
O34          C41   1.270       .  A
O35         Cu38   2.003   1_556  S
O35          C40   1.279       .  A
O36         Cu38   2.002       .  S
O36          C39   1.276       .  A
Cu37        Cu38   2.368       .  S
C39         C469   1.479       .  S
C40         C498   1.482       .  S
C41         C485   1.492       .  S
C42         C450   1.483       .  S
O43         Cu51   1.969       .  S
O43          C53   1.274       .  A
O44         Cu51   1.980   1_556  S
O44          C54   1.272       .  A
O45         Cu51   2.020   1_556  S
O45          C55   1.279       .  A
O46         Cu51   2.019       .  S
O46          C56   1.280       .  A
O47         Cu52   2.016   1_554  S
O47          C56   1.277       .  A
O48         Cu52   2.011       .  S
O48          C55   1.277       .  A
O49         Cu52   2.026       .  S
O49          C54   1.281       .  A
O50         Cu52   2.031   1_554  S
O50          C53   1.280       .  A
Cu51        Cu52   2.374   1_554  S
C53         C389   1.480       .  S
C54         C421   1.469       .  S
C55         C434   1.475       .  S
C56         C405   1.479       .  S
O57         Cu65   1.969       .  S
O57          C67   1.275   1_545  A
O58         Cu65   1.967       .  S
O58          C68   1.271       .  A
O59         Cu65   1.993       .  S
O59          C69   1.278   1_545  A
O60         Cu65   1.993       .  S
O60          C70   1.276       .  A
O61         Cu66   2.015       .  S
O61          C70   1.277       .  A
O62         Cu66   2.006       .  S
O62          C69   1.275   1_545  A
O63         Cu66   2.051       .  S
O63          C68   1.283       .  A
O64         Cu66   2.065       .  S
O64          C67   1.283   1_545  A
Cu65        Cu66   2.363       .  S
C67         C354   1.508       .  S
C68         C322   1.485       .  S
C69         C373   1.492       .  S
C70         C338   1.469       .  S
O71         Cu79   2.031   1_655  S
O71          C81   1.280       .  A
O72         Cu79   2.032       .  S
O72          C82   1.280       .  A
O73         Cu79   2.024   1_655  S
O73          C83   1.280       .  A
O74         Cu79   2.008       .  S
O74          C84   1.276       .  A
O75         Cu80   2.008       .  S
O75          C84   1.278       .  A
O76         Cu80   2.013   1_655  S
O76          C83   1.277       .  A
O77         Cu80   1.991       .  S
O77          C82   1.275       .  A
O78         Cu80   2.006   1_655  S
O78          C81   1.276       .  A
Cu79        Cu80   2.374       .  S
C81         C306   1.485       .  S
C82         C274   1.472       .  S
C83         C290   1.482       .  S
C84         C261   1.471       .  S
O85         Cu93   1.991       .  S
O85          C95   1.277   1_545  A
O86         Cu93   1.994       .  S
O86          C96   1.279       .  A
O87         Cu93   1.980       .  S
O87          C97   1.272   1_545  A
O88         Cu93   1.980       .  S
O88          C98   1.275       .  A
O89         Cu94   2.028       .  S
O89          C98   1.280       .  A
O90         Cu94   2.027       .  S
O90          C97   1.281   1_545  A
O91         Cu94   2.028       .  S
O91          C96   1.278       .  A
O92         Cu94   2.020       .  S
O92          C95   1.278   1_545  A
Cu93        Cu94   2.363       .  S
C95         C226   1.483       .  S
C96         C197   1.497       .  S
C97         C242   1.489       .  S
C98         C210   1.491       .  S
O99        Cu107   2.014   1_655  S
O99         C109   1.277       .  A
O100       Cu107   2.022       .  S
O100        C110   1.278       .  A
O101       Cu107   2.038   1_655  S
O101        C111   1.281       .  A
O102       Cu107   2.028       .  S
O102        C112   1.281       .  A
O103       Cu108   1.984   1_455  S
O103        C112   1.273       .  A
O104       Cu108   1.990       .  S
O104        C111   1.274       .  A
O105       Cu108   2.004   1_455  S
O105        C110   1.278       .  A
O106       Cu108   2.000       .  S
O106        C109   1.277       .  A
Cu107      Cu108   2.374   1_455  S
C109        C178   1.468       .  S
C110        C149   1.479       .  S
C111        C165   1.474       .  S
C112        C130   1.485       .  S
C113        C114   1.381       .  D
C113        C530   1.518       .  S
C113        C581   1.507       .  S
C114        C146   1.507       .  S
C114        C325   1.502       .  S
C115        C116   1.387       .  D
C115        C386   1.513       .  S
C115        C597   1.524       .  S
C116        C162   1.516       .  S
C116        C213   1.518       .  S
C117        C118   1.373       .  D
C117        C437   1.511       .  S
C117        C610   1.498       .  S
C118        C181   1.502       .  S
C118        C194   1.512       .  S
C119        C120   1.386       .  D
C119        C402   1.504       .  S
C119        C453   1.515       .  S
C120        C229   1.513       .  S
C120        C309   1.539       .  S
C121        C122   1.383       .  D
C121        C418   1.529       .  S
C121        C501   1.502       .  S
C122        C245   1.514       .  S
C122        C293   1.509       .  S
C123        C124   1.379       .  D
C123        C466   1.508       .  S
C123        C517   1.501       .  S
C124        C258   1.513       .  S
C124        C370   1.510       .  S
C125        C126   1.373       .  D
C125        C482   1.505       .  S
C125        C565   1.511       .  S
C126        C277   1.509       .  S
C126        C357   1.510       .  S
C127        C128   1.377       .  D
C127        C549   1.515       .  S
C127        C629   1.511       .  S
C128        C133   1.506       .  S
C128        C341   1.505       .  S
C129        C130   1.400       .  A
C129        C134   1.409       .  A
C129        H136   1.085       .  S
C130        C131   1.417       .  A
C131        C132   1.401       .  A
C131        C138   1.522       .  S
C132        C133   1.408       .  A
C132        H137   1.081       .  S
C133        C134   1.430       .  A
C134        C135   1.514       .  S
C135        F139   1.384       .  S
C135        F140   1.384       .  S
C135        F141   1.365       .  S
C138        F142   1.383       .  S
C138        F143   1.383       .  S
C138        F144   1.385       .  S
C145        C146   1.410       .  A
C145        C150   1.409       .  A
C145        H152   1.078       .  S
C146        C147   1.425       .  A
C147        C148   1.402       .  A
C147        C154   1.511       .  S
C148        C149   1.396       .  A
C148        H153   1.080       .  S
C149        C150   1.412       .  A
C150        C151   1.517       .  S
C151        F155   1.385       .  S
C151        F156   1.382       .  S
C151        F157   1.383       .  S
C154        F158   1.384       .  S
C154        F159   1.365       .  S
C154        F160   1.384       .  S
C161        C162   1.409       .  A
C161        C166   1.405       .  A
C161        H168   1.069       .  S
C162        C163   1.428       .  A
C163        C164   1.408       .  A
C163        C170   1.515       .  S
C164        C165   1.397       .  A
C164        H169   1.083       .  S
C165        C166   1.407       .  A
C166        C167   1.515       .  S
C167        F171   1.385       .  S
C167        F172   1.382       .  S
C167        F173   1.383       .  S
C170        F174   1.383       .  S
C170        F175   1.374       .  S
C170        F176   1.384       .  S
C177        C178   1.392       .  A
C177        C182   1.394       .  A
C177        H184   1.084       .  S
C178        C179   1.417       .  A
C179        C180   1.412       .  A
C179        C186   1.515       .  S
C180        C181   1.411       .  A
C180        H185   1.083       .  S
C181        C182   1.424       .  A
C182        C183   1.516       .  S
C183        F187   1.384       .  S
C183        F188   1.373       .  S
C183        F189   1.383       .  S
C186        F190   1.382       .  S
C186        F191   1.383       .  S
C186        F192   1.383       .  S
C193        C194   1.408       .  A
C193        C198   1.412       .  A
C193        H200   1.080       .  S
C194        C195   1.421       .  A
C195        C196   1.400       .  A
C195        C202   1.519       .  S
C196        C197   1.403       .  A
C196        H201   1.083       .  S
C197        C198   1.423       .  A
C198        C199   1.517       .  S
C199        F203   1.385       .  S
C199        F204   1.383       .  S
C199        F205   1.378       .  S
C202        F206   1.377       .  S
C202        F207   1.378       .  S
C202        F208   1.386       .  S
C209        C210   1.403       .  A
C209        C214   1.403       .  A
C209        H216   1.085       .  S
C210        C211   1.414       .  A
C211        C212   1.407       .  A
C211        C218   1.519       .  S
C212        C213   1.411       .  A
C212        H217   1.062       .  S
C213        C214   1.425       .  A
C214        C215   1.514       .  S
C215        F219   1.383       .  S
C215        F220   1.368       .  S
C215        F221   1.385       .  S
C218        F222   1.379       .  S
C218        F223   1.383       .  S
C218        F224   1.385       .  S
C225        C226   1.403       .  A
C225        C230   1.401       .  A
C225        H232   1.085       .  S
C226        C227   1.418       .  A
C227        C228   1.409       .  A
C227        C234   1.520       .  S
C228        C229   1.409       .  A
C228        H233   1.074       .  S
C229        C230   1.416       .  A
C230        C231   1.511       .  S
C231        F235   1.382       .  S
C231        F236   1.385       .  S
C231        F237   1.376       .  S
C234        F238   1.382       .  S
C234        F239   1.384       .  S
C234        F240   1.385       .  S
C241        C242   1.404       .  A
C241        C246   1.410       .  A
C241        H248   1.084       .  S
C242        C243   1.419       .  A
C243        C244   1.400       .  A
C243        C250   1.524       .  S
C244        C245   1.409       .  A
C244        H249   1.079       .  S
C245        C246   1.430       .  A
C246        C247   1.517       .  S
C247        F251   1.384       .  S
C247        F252   1.383       .  S
C247        F253   1.370       .  S
C250        F254   1.384   1_565  S
C250        F255   1.383       .  S
C250        F256   1.385       .  S
C257        C258   1.412       .  A
C257        C262   1.409       .  A
C257        H264   1.072       .  S
C258        C259   1.427       .  A
C259        C260   1.401       .  A
C259        C266   1.518       .  S
C260        C261   1.395       .  A
C260        H265   1.084       .  S
C261        C262   1.409       .  A
C262        C263   1.518       .  S
C263        F267   1.385       .  S
C263        F268   1.383       .  S
C263        F269   1.383       .  S
C266        F270   1.383       .  S
C266        F271   1.374       .  S
C266        F272   1.383       .  S
C273        C274   1.400       .  A
C273        C278   1.404       .  A
C273        H280   1.083       .  S
C274        C275   1.410       .  A
C275        C276   1.402       .  A
C275        C282   1.508       .  S
C276        C277   1.408       .  A
C276        H281   1.081       .  S
C277        C278   1.420       .  A
C278        C279   1.514       .  S
C279        F283   1.384       .  S
C279        F284   1.382       .  S
C279        F285   1.383       .  S
C282        F286   1.384       .  S
C282        F287   1.382       .  S
C282        F288   1.382       .  S
C289        C290   1.394       .  A
C289        C294   1.401       .  A
C289        H296   1.086       .  S
C290        C291   1.415       .  A
C291        C292   1.410       .  A
C291        C298   1.512       .  S
C292        C293   1.409       .  A
C292        H297   1.081       .  S
C293        C294   1.431       .  A
C294        C295   1.516       .  S
C295        F299   1.382       .  S
C295        F300   1.362       .  S
C295        F301   1.384       .  S
C298        F302   1.382       .  S
C298        F303   1.377       .  S
C298        F304   1.385       .  S
C305        C306   1.400       .  A
C305        C310   1.416       .  A
C305        H312   1.085       .  S
C306        C307   1.410       .  A
C307        C308   1.401       .  A
C307        C314   1.521       .  S
C308        C309   1.419       .  A
C308        H313   1.075       .  S
C309        C310   1.437       .  A
C310        C311   1.511       .  S
C311        F315   1.386       .  S
C311        F316   1.370       .  S
C311        F317   1.382       .  S
C314        F318   1.383       .  S
C314        F319   1.375       .  S
C314        F320   1.385       .  S
C321        C322   1.404       .  A
C321        C326   1.414       .  A
C321        H328   1.084       .  S
C322        C323   1.418       .  A
C323        C324   1.397       .  A
C323        C330   1.523       .  S
C324        C325   1.402       .  A
C324        H329   1.079       .  S
C325        C326   1.426       .  A
C326        C327   1.517       .  S
C327        F331   1.384       .  S
C327        F332   1.376       .  S
C327        F333   1.383       .  S
C330        F334   1.383       .  S
C330        F335   1.384       .  S
C330        F336   1.385       .  S
C337        C338   1.394       .  A
C337        C342   1.404       .  A
C337        H344   1.086       .  S
C338        C339   1.410       .  A
C339        C340   1.403       .  A
C339        C346   1.516       .  S
C340        C341   1.408       .  A
C340        H345   1.082       .  S
C341        C342   1.431       .  A
C342        C343   1.514       .  S
C343        F347   1.384       .  S
C343        F348   1.364       .  S
C343        F349   1.383       .  S
C346        F350   1.381       .  S
C346        F351   1.383       .  S
C346        F352   1.385       .  S
C353        C354   1.407       .  A
C353        C358   1.396       .  A
C353        H360   1.083       .  S
C354        C355   1.425       .  A
C355        C356   1.422       .  A
C355        C362   1.516       .  S
C356        C357   1.411       .  A
C356        H361   1.081       .  S
C357        C358   1.421       .  A
C358        C359   1.523       .  S
C359        F363   1.385       .  S
C359        F364   1.375       .  S
C359        F365   1.382       .  S
C362        F366   1.383       .  S
C362        F367   1.383       .  S
C362        F368   1.385       .  S
C369        C370   1.407       .  A
C369        C374   1.409       .  A
C369        H376   1.072       .  S
C370        C371   1.422       .  A
C371        C372   1.398       .  A
C371        C378   1.518       .  S
C372        C373   1.403       .  A
C372        H377   1.084       .  S
C373        C374   1.423       .  A
C374        C375   1.521       .  S
C375        F379   1.385       .  S
C375        F380   1.383       .  S
C375        F381   1.383       .  S
C378        F382   1.383       .  S
C378        F383   1.375       .  S
C378        F384   1.384       .  S
C385        C386   1.410       .  A
C385        C390   1.408       .  A
C385        H392   1.073       .  S
C386        C387   1.423       .  A
C387        C388   1.402       .  A
C387        C394   1.515       .  S
C388        C389   1.400       .  A
C388        H393   1.083       .  S
C389        C390   1.412       .  A
C390        C391   1.518       .  S
C391        F395   1.385       .  S
C391        F396   1.383       .  S
C391        F397   1.382       .  S
C394        F398   1.378       .  S
C394        F399   1.371       .  S
C394        F400   1.385       .  S
C401        C402   1.412       .  A
C401        C406   1.404       .  A
C401        H408   1.081       .  S
C402        C403   1.425       .  A
C403        C404   1.411       .  A
C403        C410   1.514       .  S
C404        C405   1.403       .  A
C404        H409   1.085       .  S
C405        C406   1.410       .  A
C406        C407   1.522       .  S
C407        F411   1.385       .  S
C407        F412   1.378       .  S
C407        F413   1.383       .  S
C410        F414   1.383       .  S
C410        F415   1.377       .  S
C410        F416   1.384       .  S
C417        C418   1.417       .  A
C417        C422   1.396       .  A
C417        H424   1.074       .  S
C418        C419   1.433       .  A
C419        C420   1.412       .  A
C419        C426   1.511       .  S
C420        C421   1.399       .  A
C420        H425   1.085       .  S
C421        C422   1.408       .  A
C422        C423   1.526       .  S
C423        F427   1.385       .  S
C423        F428   1.374       .  S
C423        F429   1.383       .  S
C426        F430   1.381       .  S
C426        F431   1.374       .  S
C426        F432   1.386       .  S
C433        C434   1.393       .  A
C433        C438   1.400       .  A
C433        H440   1.085       .  S
C434        C435   1.413       .  A
C435        C436   1.415       .  A
C435        C442   1.515       .  S
C436        C437   1.412       .  A
C436        H441   1.081       .  S
C437        C438   1.425       .  A
C438        C439   1.514       .  S
C439        F443   1.385       .  S
C439        F444   1.374       .  S
C439        F445   1.382       .  S
C442        F446   1.383       .  S
C442        F447   1.383       .  S
C442        F448   1.384       .  S
C449        C450   1.399       .  A
C449        C454   1.402       .  A
C449        H456   1.086       .  S
C450        C451   1.414       .  A
C451        C452   1.414       .  A
C451        C458   1.516       .  S
C452        C453   1.411       .  A
C452        H457   1.078       .  S
C453        C454   1.424       .  A
C454        C455   1.513       .  S
C455        F459   1.385       .  S
C455        F460   1.371       .  S
C455        F461   1.383       .  S
C458        F462   1.383       .  S
C458        F463   1.383       .  S
C458        F464   1.385       .  S
C465        C466   1.410       .  A
C465        C470   1.408       .  A
C465        H472   1.078       .  S
C466        C467   1.423       .  A
C467        C468   1.408       .  A
C467        C474   1.512       .  S
C468        C469   1.401       .  A
C468        H473   1.085       .  S
C469        C470   1.411       .  A
C470        C471   1.518       .  S
C471        F475   1.384       .  S
C471        F476   1.384       .  S
C471        F477   1.382       .  S
C474        F478   1.372       .  S
C474        F479   1.383       .  S
C474        F480   1.384       .  S
C481        C482   1.402       .  A
C481        C486   1.396       .  A
C481        H488   1.079       .  S
C482        C483   1.426       .  A
C483        C484   1.413       .  A
C483        C490   1.514       .  S
C484        C485   1.408       .  A
C484        H489   1.084       .  S
C485        C486   1.424       .  A
C486        C487   1.527       .  S
C487        F491   1.385       .  S
C487        F492   1.384       .  S
C487        F493   1.374       .  S
C490        F494   1.370       .  S
C490        F495   1.384       .  S
C490        F496   1.383       .  S
C497        C498   1.402       .  A
C497        C502   1.415       .  A
C497        H504   1.084       .  S
C498        C499   1.409       .  A
C499        C500   1.389       .  A
C499        C506   1.507       .  S
C500        C501   1.398       .  A
C500        H505   1.084       .  S
C501        C502   1.432       .  A
C502        C503   1.518       .  S
C503        F507   1.382       .  S
C503        F508   1.376       .  S
C503        F509   1.385       .  S
C506        F510   1.381       .  S
C506        F511   1.382       .  S
C506        F512   1.384       .  S
C513        C514   1.401       .  A
C513        C518   1.400       .  A
C513        H520   1.085       .  S
C514        C515   1.414       .  A
C515        C516   1.407       .  A
C515        C522   1.516       .  S
C516        C517   1.408       .  A
C516        H521   1.079       .  S
C517        C518   1.420       .  A
C518        C519   1.511       .  S
C519        F523   1.385       .  S
C519        F524   1.372       .  S
C519        F525   1.383       .  S
C522        F526   1.383       .  S
C522        F527   1.376       .  S
C522        F528   1.385       .  S
C529        C530   1.414       .  A
C529        C534   1.412       .  A
C529        H536   1.079       .  S
C530        C531   1.433       .  A
C531        C532   1.405       .  A
C531        C538   1.519       .  S
C532        C533   1.392       .  A
C532        H537   1.084       .  S
C533        C534   1.409       .  A
C534        C535   1.516       .  S
C535        F539   1.384       .  S
C535        F540   1.383       .  S
C535        F541   1.383       .  S
C538        F542   1.372       .  S
C538        F543   1.374       .  S
C538        F544   1.385       .  S
C545        C546   1.404       .  A
C545        C550   1.410       .  A
C545        H552   1.084       .  S
C546        C547   1.423       .  A
C547        C548   1.401       .  A
C547        C554   1.523       .  S
C548        C549   1.407       .  A
C548        H553   1.079       .  S
C549        C550   1.429       .  A
C550        C551   1.515       .  S
C551        F555   1.385       .  S
C551        F556   1.368       .  S
C551        F557   1.383       .  S
C554        F558   1.383       .  S
C554        F559   1.379       .  S
C554        F560   1.385       .  S
C561        C562   1.395       .  A
C561        C566   1.400       .  A
C561        H568   1.077       .  S
C562        C563   1.413       .  A
C563        C564   1.411       .  A
C563        C570   1.513       .  S
C564        C565   1.411       .  A
C564        H569   1.083       .  S
C565        C566   1.419       .  A
C566        C567   1.513       .  S
C567        F571   1.382       .  S
C567        F572   1.385       .  S
C567        F573   1.372       .  S
C570        F574   1.383       .  S
C570        F575   1.381       .  S
C570        F576   1.384       .  S
C577        C578   1.403       .  A
C577        C582   1.411       .  A
C577        H584   1.084       .  S
C578        C579   1.419       .  A
C579        C580   1.398       .  A
C579        C586   1.521       .  S
C580        C581   1.406       .  A
C580        H585   1.083       .  S
C581        C582   1.430       .  A
C582        C583   1.515       .  S
C583        F587   1.385       .  S
C583        F588   1.369       .  S
C583        F589   1.383       .  S
C586        F590   1.383       .  S
C586        F591   1.381       .  S
C586        F592   1.385       .  S
C593        C594   1.394       .  A
C593        C598   1.407       .  A
C593        H600   1.085       .  S
C594        C595   1.406       .  A
C595        C596   1.402       .  A
C595        C602   1.518       .  S
C596        C597   1.409       .  A
C596        H601   1.066       .  S
C597        C598   1.435       .  A
C598        C599   1.512       .  S
C599        F603   1.386       .  S
C599        F604   1.370       .  S
C599        F605   1.382       .  S
C602        F606   1.383       .  S
C602        F607   1.381       .  S
C602        F608   1.383       .  S
C609        C610   1.408       .  A
C609        C614   1.413       .  A
C609        H616   1.081       .  S
C610        C611   1.419       .  A
C611        C612   1.393       .  A
C611        C618   1.517       .  S
C612        C613   1.400       .  A
C612        H617   1.085       .  S
C613        C614   1.418       .  A
C614        C615   1.516       .  S
C615        F619   1.385       .  S
C615        F620   1.383       .  S
C615        F621   1.383       .  S
C618        F622   1.385       .  S
C618        F623   1.372       .  S
C618        F624   1.383       .  S
C625        C626   1.394       .  A
C625        C630   1.406       .  A
C625        H632   1.086       .  S
C626        C627   1.408       .  A
C627        C628   1.405       .  A
C627        C634   1.513       .  S
C628        C629   1.409       .  A
C628        H633   1.082       .  S
C629        C630   1.433       .  A
C630        C631   1.515       .  S
C631        F635   1.385       .  S
C631        F636   1.365       .  S
C631        F637   1.383       .  S
C634        F638   1.380   1_556  S
C634        F639   1.383       .  S
C634        F640   1.384       .  S
