geometry optimzed in LAMMPS
_audit_creation_date              2020-11-30 
_audit_creation_method            'lammps2cif' 
_symmetry_space_group_name_H-M    'P1' 
_symmetry_Int_Tables_number       1 
_symmetry_cell_setting            triclinic 
loop_ 
_symmetry_equiv_pos_as_xyz 
  x,y,z 
_cell_length_a                    29.87217574 
_cell_length_b                    30.005768008343832 
_cell_length_c                    43.386750537564815 
_cell_angle_alpha                 90.05141201628685 
_cell_angle_beta                  89.82979145453778 
_cell_angle_gamma                 120.09819348316196 
loop_ 
_atom_site_label 
_atom_site_type_symbol 
_atom_site_fract_x 
_atom_site_fract_y 
_atom_site_fract_z 
_atom_site_charge 
O1          O  0.48620378  0.58088052  0.22784812    -0.86200
O2          O  0.48715178  0.63728647  0.17911289    -0.83300
C3          C  0.48970231  0.65245748  0.15185898     0.97300
O4          O  0.47338049  0.61987278  0.13013085    -0.83300
O5          O  0.54032945  0.58187136  0.12715451    -0.85900
C6          C  0.56410732  0.55864317  0.13449105     1.01800
O7          O  0.54190916  0.51967435  0.15181049    -0.78700
O8          O  0.54298608  0.56362024  0.20775335    -0.78900
C9          C  0.53152591  0.58763707  0.22715395     1.01700
O10         O  0.38630368  0.50114914  0.20915608    -0.86200
O11         O  0.38261468  0.56093416  0.16370807    -0.83300
C12         C  0.36193240  0.53007102  0.14143184     0.97300
O13         O  0.38738203  0.51461264  0.12612689    -0.83300
O14         O  0.45443731  0.47832098  0.11807622    -0.85900
C15         C  0.43649422  0.43777530  0.13436195     1.01700
O16         O  0.43735058  0.44037353  0.16338732    -0.78700
O17         O  0.44234882  0.47819661  0.22227970    -0.78900
C18         C  0.39862175  0.47465267  0.22550290     1.01700
Cr19       Cr  0.43747032  0.56792601  0.19306825     1.93700
Cr20       Cr  0.46396124  0.54811891  0.12834291     1.93200
Cr21       Cr  0.48915413  0.50311892  0.18506719     1.39100
O22         O  0.46338952  0.53964500  0.16875339    -1.24000
O23         O  0.39158960  0.89602191  0.21614319    -0.86200
O24         O  0.38538614  0.82952629  0.17147140    -0.83300
C25         C  0.36429683  0.83949593  0.14932202     0.97300
O26         O  0.38936891  0.88026441  0.13392713    -0.83300
O27         O  0.46142609  0.98130490  0.12079449    -0.85900
C28         C  0.44493770  0.00617891  0.13594936     1.01800
O29         O  0.44812773  0.00768630  0.16490392    -0.78700
O30         O  0.44769413  0.97759887  0.22438371    -0.78900
C31         C  0.40309491  0.93857957  0.22820782     1.01700
O32         O  0.49212805  0.91426958  0.23442040    -0.86200
O33         O  0.49021632  0.85523601  0.18529252    -0.83300
C34         C  0.48993082  0.84062259  0.15809383     0.97300
O35         O  0.47062169  0.85499952  0.13703863    -0.83300
O36         O  0.54215332  0.95766012  0.12932823    -0.85900
C37         C  0.56804502  0.00484037  0.13579706     1.01700
O38         O  0.55126033  0.02411248  0.15557841    -0.78700
O39         O  0.54867879  0.98675972  0.21289022    -0.78900
C40         C  0.53789033  0.95180153  0.23243230     1.01700
Cr41       Cr  0.44200523  0.87792329  0.19986492     1.93700
Cr42       Cr  0.46604425  0.91935299  0.13363148     1.93200
Cr43       Cr  0.49687797  0.99430219  0.18846734     1.39100
O44         O  0.46851183  0.93070395  0.17403279    -1.24000
O45         O  0.11834573  0.50238614  0.20670276    -0.86200
O46         O  0.18613973  0.56038708  0.16062979    -0.83300
C47         C  0.17494238  0.52776176  0.13939286     0.97300
O48         O  0.13401496  0.51220368  0.12409272    -0.83300
O49         O  0.03202280  0.48142003  0.11406954    -0.85900
C50         C  0.00408571  0.44278377  0.13095618     1.01800
O51         O  0.00222539  0.44751676  0.15984986    -0.78700
O52         O  0.03981266  0.48593833  0.21812012    -0.78900
C53         C  0.07712201  0.47753003  0.22196504     1.01700
O54         O  0.10473803  0.58467876  0.22363596    -0.86200
O55         O  0.16337963  0.64062108  0.17315611    -0.83300
C56         C  0.17640536  0.65342992  0.14542221     0.97300
O57         O  0.15939832  0.61924381  0.12459622    -0.83300
O58         O  0.05575433  0.58705140  0.11856268    -0.85900
C59         C  0.00828547  0.56672725  0.12483651     1.01700
O60         O  0.98920908  0.53277083  0.14578428    -0.78700
O61         O  0.03781876  0.58023349  0.20152408    -0.78900
C62         C  0.07317549  0.60049632  0.22156006     1.01700
Cr63       Cr  0.13908399  0.57021709  0.18893755     1.93700
Cr64       Cr  0.09456755  0.54957333  0.12353982     1.93200
Cr65       Cr  0.02208258  0.51420404  0.18029597     1.39100
O66         O  0.08507094  0.54395958  0.16405391    -1.24000
O67         O  0.42093571  0.17715088  0.06490493    -0.86200
O68         O  0.47275618  0.17457203  0.01419530    -0.83300
C69         C  0.49238614  0.18156945  0.48775020     0.97300
O70         O  0.47383297  0.19510061  0.46572299    -0.83300
O71         O  0.36762469  0.12318082  0.46101486    -0.85900
C72         C  0.32015124  0.09859655  0.46773770     1.01800
O73         O  0.30251446  0.11528058  0.48875017    -0.78700
O74         O  0.34911400  0.11706813  0.04487660    -0.78900
C75         C  0.38521365  0.13062405  0.06420548     1.01700
O76         O  0.43784402  0.27543721  0.04535919    -0.86200
O77         O  0.50073438  0.27980505  0.99922383    -0.83300
C78         C  0.48979807  0.30039809  0.47731616     0.97300
O79         O  0.44782981  0.27534641  0.46317908    -0.83300
O80         O  0.34572165  0.20667169  0.45552005    -0.85900
C81         C  0.32257759  0.22303816  0.47276788     1.01700
O82         O  0.32204120  0.21787589  0.50159288    -0.78700
O83         O  0.35914297  0.21745220  0.05915522    -0.78900
C84         C  0.39819906  0.26256433  0.06139706     1.01700
Cr85       Cr  0.45415474  0.22466189  0.02910964     1.93700
Cr86       Cr  0.40782179  0.19928039  0.46446610     1.93200
Cr87       Cr  0.33747985  0.16858556  0.02242649     1.39100
O88         O  0.39953713  0.19763387  0.00521830    -1.24000
O89         O  0.84496743  0.28331831  0.03825491    -0.86200
O90         O  0.78174151  0.28522960  0.99457684    -0.83300
C91         C  0.81177485  0.30329823  0.47193137     0.97300
O92         O  0.82665442  0.27645459  0.45769644    -0.83300
O93         O  0.85198277  0.20045359  0.44980362    -0.85900
C94         C  0.89361625  0.21910200  0.46503449     1.01800
O95         O  0.89221743  0.21774541  0.49406259    -0.78700
O96         O  0.86214857  0.22367013  0.05300515    -0.78900
C97         C  0.87015530  0.26957269  0.05488486     1.01700
O98         O  0.76504439  0.18924294  0.06211112    -0.86200
O99         O  0.70308451  0.18496747  0.01344882    -0.83300
C100        C  0.68860112  0.18894779  0.48693118     0.97300
O101        O  0.71904837  0.20017056  0.46414159    -0.83300
O102        O  0.74585923  0.12394711  0.46063945    -0.85900
C103        C  0.76748674  0.09794978  0.46607572     1.01700
O104        O  0.80493291  0.11489493  0.48508435    -0.78700
O105        O  0.76624454  0.12383919  0.04209848    -0.78900
C106        C  0.74805261  0.14157869  0.06180306     1.01700
Cr107      Cr  0.77491289  0.23320677  0.02539760     1.93700
Cr108      Cr  0.78654842  0.20005128  0.46097129     1.93200
Cr109      Cr  0.82916761  0.17174667  0.01753490     1.39100
O110        O  0.79712616  0.20181347  0.00110168    -1.24000
O111        O  0.71226789  0.53587134  0.04094288    -0.86200
O112        O  0.69907610  0.47291648  0.99235690    -0.83300
C113        C  0.67711303  0.48404681  0.47133868     0.97300
O114        O  0.70201663  0.52474664  0.45571202    -0.83300
O115        O  0.77278512  0.62756741  0.44620000    -0.85900
C116        C  0.75920432  0.65261976  0.46360172     1.01800
O117        O  0.76237481  0.65044531  0.49248455    -0.78700
O118        O  0.77094649  0.61600453  0.05021855    -0.78900
C119        C  0.72699257  0.57714275  0.05551800     1.01700
O120        O  0.81465167  0.55195686  0.05198973    -0.86200
O121        O  0.80450234  0.49525204  0.00048217    -0.83300
C122        C  0.80310958  0.48357520  0.47268866     0.97300
O123        O  0.78421796  0.50078930  0.45318975    -0.83300
O124        O  0.85561667  0.60465834  0.45034879    -0.85900
C125        C  0.88144852  0.65185502  0.45694478     1.01700
O126        O  0.86307960  0.66995924  0.47628786    -0.78700
O127        O  0.86871949  0.62662044  0.03127582    -0.78900
C128        C  0.85967817  0.59104194  0.05015187     1.01700
Cr129      Cr  0.75950213  0.51827088  0.01949236     1.93700
Cr130      Cr  0.77903889  0.56507271  0.45461433     1.93200
Cr131      Cr  0.81378098  0.63559997  0.01139214     1.39100
O132        O  0.78358317  0.57283566  0.99519503    -1.24000
O133        O  0.77276064  0.82128475  0.37577400    -0.86200
O134        O  0.83839349  0.87641513  0.32972065    -0.83300
C135        C  0.82678459  0.84676599  0.30662558     0.97300
O136        O  0.78596539  0.83346096  0.29174860    -0.83300
O137        O  0.68570131  0.80976705  0.28223455    -0.85900
C138        C  0.66151297  0.76859267  0.29781262     1.01800
O139        O  0.66109767  0.77055527  0.32687384    -0.78700
O140        O  0.69367165  0.80337317  0.38647608    -0.78900
C141        C  0.73146477  0.79577647  0.39061258     1.01700
O142        O  0.76087295  0.90680007  0.39411619    -0.86200
O143        O  0.81769631  0.95907025  0.34463504    -0.83300
C144        C  0.83778764  0.97200281  0.31848303     0.97300
O145        O  0.82016453  0.94061205  0.29627890    -0.83300
O146        O  0.71834365  0.91730572  0.29308601    -0.85900
C147        C  0.67077245  0.89792142  0.29838889     1.01700
O148        O  0.64772398  0.85822035  0.31541470    -0.78700
O149        O  0.69082967  0.89754208  0.37231171    -0.78900
C150        C  0.72658019  0.91955962  0.39188777     1.01700
Cr151      Cr  0.79380482  0.88928098  0.35918139     1.93700
Cr152      Cr  0.75134726  0.87466811  0.29378178     1.93200
Cr153      Cr  0.67750838  0.83439183  0.34932394     1.39100
O154        O  0.74081983  0.86525350  0.33410848    -1.24000
O155        O  0.13140383  0.91319524  0.38842756    -0.86200
O156        O  0.12916210  0.96761644  0.33752896    -0.83300
C157        C  0.12885611  0.98045851  0.30995986     0.97300
O158        O  0.11484434  0.94722179  0.28871395    -0.83300
O159        O  0.19352802  0.92425509  0.28699690    -0.85900
C160        C  0.22221472  0.90662778  0.29492633     1.01800
O161        O  0.20453540  0.86882540  0.31326916    -0.78700
O162        O  0.19586235  0.90847906  0.36885813    -0.78900
C163        C  0.17908133  0.92814094  0.38814079     1.01700
O164        O  0.03719306  0.82735126  0.36875425    -0.86200
O165        O  0.02856148  0.88265093  0.32160979    -0.83300
C166        C  0.01077014  0.85007418  0.29991137     0.97300
O167        O  0.03990829  0.83831764  0.28528118    -0.83300
O168        O  0.11857219  0.81690963  0.27760964    -0.85900
C169        C  0.10570152  0.77706616  0.29364100     1.01700
O170        O  0.10611828  0.77899670  0.32271407    -0.78700
O171        O  0.09922411  0.81180072  0.38121717    -0.78900
C172        C  0.05278294  0.80188764  0.38370452     1.01700
Cr173      Cr  0.08412408  0.89623065  0.35218363     1.93700
Cr174      Cr  0.11671489  0.88110401  0.28779166     1.93200
Cr175      Cr  0.14899285  0.84427686  0.34542596     1.39100
O176        O  0.11607952  0.87322026  0.32839117    -1.24000
O177        O  0.09089633  0.24595270  0.39819110    -0.86200
O178        O  0.03462469  0.18893902  0.34942599    -0.83300
C179        C  0.02201368  0.16894051  0.32322953     0.97300
O180        O  0.05358062  0.18739038  0.30102289    -0.83300
O181        O  0.08202413  0.29052657  0.29719214    -0.85900
C182        C  0.10422279  0.33836906  0.30158720     1.01800
O183        O  0.14288351  0.35904394  0.31961104    -0.78700
O184        O  0.10177159  0.31621659  0.37632217    -0.78900
C185        C  0.07940083  0.28093635  0.39598064     1.01700
O186        O  0.17293829  0.22931142  0.37937368    -0.86200
O187        O  0.11415549  0.16476384  0.33442857    -0.83300
C188        C  0.14323039  0.17412920  0.31130750     0.97300
O189        O  0.15970412  0.21544650  0.29635131    -0.83300
O190        O  0.18818723  0.31707679  0.28708860    -0.85900
C191        C  0.22904803  0.34238093  0.30277906     1.01700
O192        O  0.22787235  0.34225904  0.33180540    -0.78700
O193        O  0.19252705  0.30814149  0.39116781    -0.78900
C194        C  0.19787411  0.26907291  0.39535442     1.01700
Cr195      Cr  0.10495050  0.21100554  0.36354320     1.93700
Cr196      Cr  0.12153438  0.25381415  0.29830535     1.93200
Cr197      Cr  0.16406982  0.32707143  0.35379476     1.39100
O198        O  0.13099262  0.26400561  0.33848191    -1.24000
C199        C  0.18511774  0.07619129  0.31616982    -0.02700
C200        C  0.14105462  0.03377897  0.30309831     0.07000
C201        C  0.10556192  0.04241033  0.28641937    -0.02800
C202        C  0.11272724  0.09222501  0.28418761    -0.02800
C203        C  0.15228436  0.13272264  0.30104702     0.07100
C204        C  0.18969865  0.12528268  0.31607703    -0.03000
Br205      Br  0.24435262  0.18138199  0.33874744    -0.01600
Br206      Br  0.23831019  0.06684737  0.33494127    -0.01600
Br207      Br  0.06485370  0.10413967  0.26071596    -0.02500
Br208      Br  0.04208634  0.98587963  0.27122064    -0.01600
C209        C  0.89215791  0.06034587  0.29617312    -0.02700
C210        C  0.88640030  0.02084664  0.31609914     0.07000
C211        C  0.92597374  0.02936261  0.33695367    -0.02800
C212        C  0.96941473  0.07823504  0.33964375    -0.02800
C213        C  0.97498592  0.11853721  0.32028941     0.07100
C214        C  0.93710272  0.10919865  0.29793327    -0.03000
Br215      Br  0.94508956  0.16390161  0.27126245    -0.01600
Br216      Br  0.83734280  0.04847793  0.26812400    -0.01600
Br217      Br  0.02077391  0.08838766  0.37026002    -0.01600
Br218      Br  0.92150587  0.97382806  0.36205621    -0.01600
C219        C  0.87219146  0.79840399  0.31708328    -0.02700
C220        C  0.86310725  0.82970956  0.29704223     0.07000
C221        C  0.89479811  0.85090799  0.27076420    -0.02800
C222        C  0.94053063  0.84832649  0.26794429    -0.02800
C223        C  0.95541865  0.82754410  0.29222245     0.07100
C224        C  0.91847436  0.79741998  0.31466520    -0.03000
Br225      Br  0.93124540  0.75487002  0.34197581    -0.01600
Br226      Br  0.82200144  0.75826819  0.34830760    -0.01600
Br227      Br  0.98246954  0.87220945  0.23126959    -0.01600
Br228      Br  0.87801128  0.88682525  0.24029884    -0.01600
C229        C  0.77467731  0.74166414  0.45511691    -0.02700
C230        C  0.74440305  0.68828184  0.44945792     0.07000
C231        C  0.70483191  0.67024324  0.42711555    -0.02800
C232        C  0.69738487  0.70540229  0.40941681    -0.02800
C233        C  0.72985856  0.75878602  0.41371925     0.07100
C234        C  0.76778342  0.77674565  0.43709790    -0.03000
Br235      Br  0.81272828  0.84991610  0.44327491    -0.01600
Br236      Br  0.82939261  0.76751010  0.48536172    -0.01600
Br237      Br  0.64622310  0.68047030  0.37720411    -0.01600
Br238      Br  0.66166197  0.59725717  0.42012281    -0.01600
C239        C  0.98912042  0.70979497  0.39574196    -0.02700
C240        C  0.01613997  0.76162220  0.40505045     0.07000
C241        C  0.00343007  0.77587073  0.43314527    -0.02800
C242        C  0.96372356  0.73855360  0.45185710    -0.02800
C243        C  0.93135012  0.68753072  0.44066087     0.07100
C244        C  0.94554136  0.67322352  0.41253616    -0.03000
Br245      Br  0.90499101  0.60526711  0.39472778    -0.01600
Br246      Br  0.01011347  0.68965261  0.35866960    -0.01600
Br247      Br  0.95700998  0.75873504  0.49326564    -0.01600
Br248      Br  0.03923163  0.84746899  0.44535904    -0.01600
C249        C  0.99625833  0.28101009  0.40243256    -0.02700
C250        C  0.03746449  0.27754037  0.41562299     0.07000
C251        C  0.03361839  0.26095612  0.44631924    -0.02800
C252        C  0.98609742  0.23921433  0.46191252    -0.02800
C253        C  0.94397949  0.24142196  0.44864296     0.07100
C254        C  0.95065971  0.26544014  0.41948093    -0.03000
Br255      Br  0.89858020  0.27834006  0.40223245    -0.01600
Br256      Br  0.99993504  0.30330920  0.36020997    -0.01600
Br257      Br  0.97877995  0.20114527  0.49938833    -0.01600
Br258      Br  0.09437408  0.27044161  0.46759205    -0.01600
C259        C  0.73147330  0.96016048  0.44374979    -0.02700
C260        C  0.73066271  0.96249627  0.41127500     0.07000
C261        C  0.73892362  0.00831555  0.39705688    -0.02800
C262        C  0.74975859  0.05188528  0.41500458    -0.02800
C263        C  0.75227428  0.05025778  0.44759257     0.07100
C264        C  0.74194081  0.00366570  0.46180679    -0.03000
Br265      Br  0.73973882  0.99851289  0.50606195    -0.01600
Br266      Br  0.71665184  0.89660580  0.46348096    -0.01600
Br267      Br  0.76487421  0.11493617  0.39420996    -0.01600
Br268      Br  0.73924662  0.01289101  0.35259976    -0.01600
C269        C  0.79389128  0.40870858  0.44044328    -0.02700
C270        C  0.81982270  0.44596316  0.46380615     0.07000
C271        C  0.85681938  0.44174918  0.48199479    -0.02800
C272        C  0.86051073  0.39695580  0.48069390    -0.02800
C273        C  0.82619129  0.35553273  0.46217811     0.07100
C274        C  0.79496378  0.36232916  0.44078516    -0.03000
Br275      Br  0.74907900  0.30559349  0.41464192    -0.01600
Br276      Br  0.75647564  0.41919503  0.40806343    -0.01600
Br277      Br  0.90986817  0.39042050  0.50601165    -0.01600
Br278      Br  0.90242580  0.49637560  0.50918694    -0.01600
C279        C  0.31563191  0.28478401  0.43668617    -0.02700
C280        C  0.29247357  0.24462513  0.45859310     0.07000
C281        C  0.23878557  0.22088775  0.46407627    -0.02800
C282        C  0.20759756  0.22911055  0.44335132    -0.02800
C283        C  0.23051822  0.26710072  0.42011439     0.07100
C284        C  0.28469266  0.29702714  0.41810353    -0.03000
Br285      Br  0.31619531  0.35126701  0.38784714    -0.01600
Br286      Br  0.38969761  0.32395882  0.43247272    -0.01600
Br287      Br  0.13353534  0.18387549  0.44496656    -0.01600
Br288      Br  0.20697053  0.17477967  0.49869351    -0.01600
C289        C  0.29425193  0.01341911  0.44095672    -0.02700
C290        C  0.28378188  0.05310264  0.44867373     0.07000
C291        C  0.23919224  0.05113320  0.43632382    -0.02800
C292        C  0.20394543  0.00928355  0.41827935    -0.02800
C293        C  0.21444909  0.96962943  0.41005140     0.07100
C294        C  0.25976076  0.97184405  0.42193611    -0.03000
Br295      Br  0.27370257  0.91659883  0.41414699    -0.01600
Br296      Br  0.35612713  0.01587931  0.45608264    -0.01600
Br297      Br  0.14230560  0.00950214  0.40445219    -0.01600
Br298      Br  0.22920110  0.10937909  0.43991718    -0.01600
C299        C  0.58451346  0.44021165  0.48777786    -0.02700
C300        C  0.62167369  0.44731463  0.46531537     0.07000
C301        C  0.60694957  0.41185704  0.44083940    -0.02800
C302        C  0.56110409  0.36369394  0.44317426    -0.02800
C303        C  0.52779889  0.35367297  0.46849914     0.07100
C304        C  0.53674946  0.39402904  0.48860638    -0.03000
Br305      Br  0.48337146  0.38576139  0.51693774    -0.01600
Br306      Br  0.59895300  0.49343176  0.51739593    -0.01600
Br307      Br  0.54584788  0.31053093  0.41318726    -0.01600
Br308      Br  0.64828045  0.43001809  0.40410704    -0.01600
C309        C  0.63116244  0.22132914  0.00394846    -0.02700
C310        C  0.63949014  0.18898596  0.48404763     0.07000
C311        C  0.60094656  0.15756959  0.46266812    -0.02800
C312        C  0.55239429  0.15504004  0.46327787    -0.02800
C313        C  0.54287496  0.18420697  0.48510074     0.07100
C314        C  0.58272435  0.21753079  0.00542427    -0.03000
Br315      Br  0.57269607  0.25907623  0.03588671    -0.01600
Br316      Br  0.68738029  0.27495108  0.02750609    -0.01600
Br317      Br  0.49797205  0.10895078  0.43603267    -0.01600
Br318      Br  0.61458706  0.11826902  0.43277863    -0.01600
C319        C  0.94984165  0.60491799  0.05776614    -0.02700
C320        C  0.90169251  0.59397987  0.07032363     0.07000
C321        C  0.89217129  0.58142510  0.10189280    -0.02800
C322        C  0.92793524  0.57522259  0.12000153    -0.02800
C323        C  0.97368870  0.58019485  0.10663743     0.07100
C324        C  0.98442615  0.59570832  0.07519891    -0.03000
Br325      Br  0.04326167  0.59935106  0.05403478    -0.01600
Br326      Br  0.96855489  0.63160873  0.01624276    -0.01600
Br327      Br  0.91333325  0.56095301  0.16342992    -0.01600
Br328      Br  0.83153929  0.57664032  0.12107766    -0.01600
C329        C  0.88380665  0.32647623  0.10013288    -0.02700
C330        C  0.90492663  0.30705251  0.07825598     0.07000
C331        C  0.95905591  0.32981222  0.07588913    -0.02800
C332        C  0.99168095  0.37164513  0.09506938    -0.02800
C333        C  0.97045331  0.39249465  0.11582716     0.07100
C334        C  0.91632193  0.36899386  0.11873253    -0.03000
Br335      Br  0.88633669  0.39816477  0.14593437    -0.01600
Br336      Br  0.80988813  0.29719325  0.10337558    -0.01600
Br337      Br  0.06562034  0.40056488  0.09272805    -0.01600
Br338      Br  0.98866302  0.30828358  0.04379808    -0.01600
C339        C  0.13699966  0.72115799  0.27209896    -0.02700
C340        C  0.09547078  0.72935410  0.27787359     0.07000
C341        C  0.04573255  0.69376589  0.26710748    -0.02800
C342        C  0.03747251  0.64980686  0.25047537    -0.02800
C343        C  0.07980192  0.64309588  0.24253808     0.07100
C344        C  0.12973721  0.67868159  0.25452257    -0.03000
Br345      Br  0.19073653  0.67293950  0.24681779    -0.01600
Br346      Br  0.20505727  0.77002590  0.28736288    -0.01600
Br347      Br  0.96743059  0.59713139  0.24147091    -0.01600
Br348      Br  0.98921574  0.70621978  0.27446381    -0.01600
C349        C  0.09400508  0.45463897  0.27461369    -0.02700
C350        C  0.07375708  0.43916744  0.24475164     0.07000
C351        C  0.05631462  0.38834271  0.23530130    -0.02800
C352        C  0.06346075  0.35428664  0.25430154    -0.02800
C353        C  0.08796200  0.37081563  0.28359011     0.07100
C354        C  0.10015357  0.42046862  0.29422475    -0.03000
Br355      Br  0.12344175  0.44208570  0.33597278    -0.01600
Br356      Br  0.11438251  0.52345675  0.28828506    -0.01600
Br357      Br  0.04154404  0.28646110  0.23797244    -0.01600
Br358      Br  0.02482894  0.36637151  0.19518095    -0.01600
C359        C  0.37582839  0.04327381  0.07569895    -0.02700
C360        C  0.38871884  0.09323607  0.08554752     0.07000
C361        C  0.41296281  0.11052746  0.11448598    -0.02800
C362        C  0.43263915  0.08326637  0.13049393    -0.02800
C363        C  0.42324670  0.03490257  0.11949624     0.07100
C364        C  0.39247754  0.01408414  0.09273591    -0.03000
Br365      Br  0.37168893  0.94497154  0.07924322    -0.01600
Br366      Br  0.33537102  0.01389291  0.03895402    -0.01600
Br367      Br  0.47639776  0.11580866  0.16590258    -0.01600
Br368      Br  0.41493621  0.16920450  0.13396953    -0.01600
C369        C  0.65233746  0.02467372  0.10932704    -0.02700
C370        C  0.61606186  0.03962197  0.11830587     0.07000
C371        C  0.62517242  0.08898266  0.10998303    -0.02800
C372        C  0.67001338  0.12332846  0.09377622    -0.02800
C373        C  0.70556617  0.10797936  0.08362881     0.07100
C374        C  0.69763231  0.05937459  0.09296733    -0.03000
Br375      Br  0.75117045  0.04209234  0.08651449    -0.01600
Br376      Br  0.64041704  0.95647550  0.11829751    -0.01600
Br377      Br  0.68001670  0.19134977  0.08628312    -0.01600
Br378      Br  0.57338408  0.10891346  0.11709425    -0.01600
C379        C  0.33562077  0.96396621  0.23752524    -0.02700
C380        C  0.36391806  0.94099014  0.24807990     0.07000
C381        C  0.35045767  0.91461347  0.27631863    -0.02800
C382        C  0.30870227  0.91034920  0.29369639    -0.02800
C383        C  0.27505140  0.92623105  0.28104408     0.07100
C384        C  0.29062997  0.95571522  0.25336258    -0.03000
Br385      Br  0.25095549  0.98412259  0.23555859    -0.01600
Br386      Br  0.35596290  0.00347189  0.19995278    -0.01600
Br387      Br  0.30079247  0.88482393  0.33545105    -0.01600
Br388      Br  0.38751002  0.88128894  0.29047900    -0.01600
C389        C  0.60110273  0.92225604  0.29877568    -0.02700
C390        C  0.64162972  0.92010831  0.28315443     0.07000
C391        C  0.65411137  0.93941420  0.25259851    -0.02800
C392        C  0.62392374  0.95663350  0.23740448    -0.02800
C393        C  0.57918376  0.95179484  0.25163421     0.07100
C394        C  0.57056235  0.93862881  0.28309157    -0.03000
Br395      Br  0.52057224  0.94863613  0.30537921    -0.01600
Br396      Br  0.58732908  0.90377387  0.34180259    -0.01600
Br397      Br  0.64324302  0.98475098  0.19645685    -0.01600
Br398      Br  0.70821559  0.93679362  0.22931126    -0.01600
C399        C  0.22177009  0.74763392  0.15862025    -0.02700
C400        C  0.21581816  0.70815022  0.13835869     0.07000
C401        C  0.25276439  0.72118292  0.11441877    -0.02800
C402        C  0.30053538  0.76760775  0.11612051    -0.02800
C403        C  0.31058161  0.80121432  0.14106683     0.07100
C404        C  0.26951415  0.79379043  0.16033865    -0.03000
Br405      Br  0.27838905  0.84739723  0.18830248    -0.01600
Br406      Br  0.16352343  0.74018055  0.18212321    -0.01600
Br407      Br  0.35264368  0.78488524  0.08486535    -0.01600
Br408      Br  0.23883740  0.67776146  0.07888690    -0.01600
C409        C  0.63832186  0.54240502  0.12502695    -0.02700
C410        C  0.61527494  0.57318844  0.11997735     0.07000
C411        C  0.63870331  0.61374448  0.09813968    -0.02800
C412        C  0.67698769  0.61647411  0.07786099    -0.02800
C413        C  0.69253914  0.57921488  0.07939114     0.07100
C414        C  0.67396517  0.54297179  0.10357248    -0.03000
Br415      Br  0.69612620  0.49277569  0.10722081    -0.01600
Br416      Br  0.62684630  0.50386321  0.16278561    -0.01600
Br417      Br  0.70452001  0.66889399  0.04636083    -0.01600
Br418      Br  0.62194111  0.66824444  0.09665593    -0.01600
C419        C  0.44055728  0.32120873  0.10586652    -0.02700
C420        C  0.40036337  0.30065839  0.08388247     0.07000
C421        C  0.36863288  0.32275576  0.08048158    -0.02800
C422        C  0.37947079  0.36726348  0.09743485    -0.02800
C423        C  0.41990641  0.38772807  0.11923199     0.07100
C424        C  0.44842625  0.36274188  0.12452376    -0.03000
Br425      Br  0.50084620  0.38716364  0.15610521    -0.01600
Br426      Br  0.48832183  0.29576091  0.10890654    -0.01600
Br427      Br  0.33941019  0.40054088  0.09055106    -0.01600
Br428      Br  0.31334762  0.29503054  0.05077176    -0.01600
C429        C  0.55327037  0.63429807  0.27731938    -0.02700
C430        C  0.57042733  0.62579537  0.24875944     0.07000
C431        C  0.62163301  0.66033339  0.23906512    -0.02800
C432        C  0.65245278  0.70590874  0.25594373    -0.02800
C433        C  0.63168392  0.71815174  0.28189439     0.07100
C434        C  0.58190930  0.68154071  0.29264098    -0.03000
Br435      Br  0.54892040  0.69767132  0.32575269    -0.01600
Br436      Br  0.49157388  0.57998738  0.29647688    -0.01600
Br437      Br  0.72280508  0.75124254  0.24275902    -0.01600
Br438      Br  0.64946294  0.64767322  0.20188495    -0.01600
C439        C  0.33830460  0.46231301  0.26825323    -0.02700
C440        C  0.36170420  0.44152739  0.24915394     0.07000
C441        C  0.34446263  0.38836464  0.25007437    -0.02800
C442        C  0.30223525  0.35581087  0.26895477    -0.02800
C443        C  0.27743594  0.37643199  0.28671337     0.07100
C444        C  0.29586702  0.42968474  0.28670495    -0.03000
Br445      Br  0.25990338  0.45755593  0.30962020    -0.01600
Br446      Br  0.36292435  0.53550506  0.26863055    -0.01600
Br447      Br  0.27699577  0.28275742  0.26964930    -0.01600
Br448      Br  0.37495715  0.35916094  0.22345161    -0.01600
C449        C  0.49063203  0.72578891  0.12172535    -0.02700
C450        C  0.50719259  0.70819674  0.14709908     0.07000
C451        C  0.53485030  0.74366722  0.17083896    -0.02800
C452        C  0.53247846  0.78909023  0.17392962    -0.02800
C453        C  0.50674985  0.80210361  0.15130689     0.07100
C454        C  0.49332189  0.77407865  0.12325110    -0.03000
Br455      Br  0.48156679  0.80186483  0.08596131    -0.01600
Br456      Br  0.46304521  0.68465815  0.08505837    -0.01600
Br457      Br  0.56572559  0.83257384  0.20910638    -0.01600
Br458      Br  0.57778843  0.73128445  0.19880256    -0.01600
C459        C  0.26877149  0.48302437  0.15572768    -0.02700
C460        C  0.30735936  0.51282370  0.13400286     0.07000
C461        C  0.29416420  0.53235451  0.10820832    -0.02800
C462        C  0.24572354  0.52987833  0.10731761    -0.02800
C463        C  0.21199347  0.51000185  0.13275189     0.07100
C464        C  0.22166099  0.48258994  0.15554229    -0.03000
Br465      Br  0.17097554  0.44471362  0.18680090    -0.01600
Br466      Br  0.27957620  0.44177093  0.18535929    -0.01600
Br467      Br  0.22584516  0.55447644  0.07200810    -0.01600
Br468      Br  0.34282991  0.56423994  0.07506608    -0.01600
O469        O  0.48599907  0.58078528  0.72788513    -0.86200
O470        O  0.48698404  0.63720863  0.67914960    -0.83300
C471        C  0.48954342  0.65238704  0.65189819     0.97300
O472        O  0.47325350  0.61981031  0.63016372    -0.83300
O473        O  0.54026954  0.58190409  0.62719517    -0.85900
C474        C  0.56408790  0.55872049  0.63453786     1.01800
O475        O  0.54191722  0.51974604  0.65185660    -0.78700
O476        O  0.54286198  0.56363451  0.70779762    -0.78900
C477        C  0.53134763  0.58761265  0.72719576     1.01700
O478        O  0.38615055  0.50101474  0.70912032    -0.86200
O479        O  0.38249413  0.56083435  0.66368573    -0.83300
C480        C  0.36184497  0.52997038  0.64140713     0.97300
O481        O  0.38731852  0.51451893  0.62612224    -0.83300
O482        O  0.45444352  0.47831697  0.61808946    -0.85900
C483        C  0.43652786  0.43776967  0.63437138     1.01700
O484        O  0.43737313  0.44035403  0.66339660    -0.78700
O485        O  0.44225106  0.47814824  0.72227845    -0.78900
C486        C  0.39849836  0.47455452  0.72547926     1.01700
Cr487      Cr  0.43731180  0.56782700  0.69307445     1.93700
Cr488      Cr  0.46389818  0.54808565  0.62836163     1.93200
Cr489      Cr  0.48910454  0.50311760  0.68509215     1.39100
O490        O  0.46329990  0.53959899  0.66876936    -1.24000
O491        O  0.39151772  0.89612007  0.71619566    -0.86200
O492        O  0.38514464  0.82951350  0.67155613    -0.83300
C493        C  0.36404879  0.83946721  0.64940304     0.97300
O494        O  0.38912925  0.88020633  0.63398532    -0.83300
O495        O  0.46117419  0.98121020  0.62080451    -0.85900
C496        C  0.44477061  0.00614738  0.63597209     1.01800
O497        O  0.44803603  0.00770537  0.66492395    -0.78700
O498        O  0.44769524  0.97768172  0.72440966    -0.78900
C499        C  0.40308657  0.93869239  0.72825853     1.01700
O500        O  0.49202571  0.91429008  0.73442798    -0.86200
O501        O  0.48996631  0.85515261  0.68532811    -0.83300
C502        C  0.48963856  0.84051149  0.65813122     0.97300
O503        O  0.47034635  0.85490583  0.63707978    -0.83300
O504        O  0.54190267  0.95752821  0.62930312    -0.85900
C505        C  0.56783969  0.00471074  0.63575586     1.01700
O506        O  0.55110939  0.02403545  0.65553499    -0.78700
O507        O  0.54860432  0.98672106  0.71285253    -0.78900
C508        C  0.53780147  0.95178974  0.73241705     1.01700
Cr509      Cr  0.44183942  0.87792737  0.69990639     1.93700
Cr510      Cr  0.46579950  0.91926596  0.63365203     1.93200
Cr511      Cr  0.49679240  0.99429496  0.68845891     1.39100
O512        O  0.46834460  0.93067337  0.67404907    -1.24000
O513        O  0.11839786  0.50235330  0.70669921    -0.86200
O514        O  0.18615231  0.56045148  0.66062155    -0.83300
C515        C  0.17496094  0.52783500  0.63937919     0.97300
O516        O  0.13401956  0.51224969  0.62409165    -0.83300
O517        O  0.03203104  0.48146799  0.61404404    -0.85900
C518        C  0.00413537  0.44278929  0.63090939     1.01800
O519        O  0.00228486  0.44747995  0.65980795    -0.78700
O520        O  0.03982046  0.48580743  0.71809839    -0.78900
C521        C  0.07716476  0.47745296  0.72195095     1.01700
O522        O  0.10468821  0.58455511  0.72368052    -0.86200
O523        O  0.16325140  0.64058520  0.67320917    -0.83300
C524        C  0.17625381  0.65344876  0.64547833     0.97300
O525        O  0.15937954  0.61927774  0.62464614    -0.83300
O526        O  0.05576277  0.58708504  0.61862011    -0.85900
C527        C  0.00829328  0.56674670  0.62489012     1.01700
O528        O  0.98920099  0.53273919  0.64581057    -0.78700
O529        O  0.03774780  0.58009244  0.70159218    -0.78900
C530        C  0.07309760  0.60034043  0.72163537     1.01700
Cr531      Cr  0.13906449  0.57018830  0.68895792     1.93700
Cr532      Cr  0.09456778  0.54960457  0.62355916     1.93200
Cr533      Cr  0.02207027  0.51411643  0.68030422     1.39100
O534        O  0.08505852  0.54392644  0.66407192    -1.24000
O535        O  0.42106223  0.17721177  0.56481985    -0.86200
O536        O  0.47278721  0.17459089  0.51408387    -0.83300
C537        C  0.49233517  0.18151462  0.98785646     0.97300
O538        O  0.47376069  0.19499607  0.96581834    -0.83300
O539        O  0.36755775  0.12305531  0.96108696    -0.85900
C540        C  0.32007600  0.09848194  0.96779258     1.01800
O541        O  0.30243929  0.11516878  0.98880238    -0.78700
O542        O  0.34920427  0.11715193  0.54482059    -0.78900
C543        C  0.38529877  0.13070370  0.56415268     1.01700
O544        O  0.43799061  0.27550148  0.54530814    -0.86200
O545        O  0.50081736  0.27985097  0.49913803    -0.83300
C546        C  0.48972553  0.30031376  0.97737342     0.97300
O547        O  0.44776862  0.27523040  0.96322802    -0.83300
O548        O  0.34566115  0.20653848  0.95555463    -0.85900
C549        C  0.32251465  0.22292089  0.97278628     1.01700
O550        O  0.32195562  0.21776577  0.00161306    -0.78700
O551        O  0.35928883  0.21753895  0.55911762    -0.78900
C552        C  0.39836910  0.26263495  0.56136869     1.01700
Cr553      Cr  0.45425373  0.22471381  0.52902700     1.93700
Cr554      Cr  0.40775678  0.19916271  0.96453159     1.93200
Cr555      Cr  0.33757800  0.16868399  0.52238099     1.39100
O556        O  0.39962120  0.19772558  0.50515482    -1.24000
O557        O  0.84487247  0.28314382  0.53840018    -0.86200
O558        O  0.78171885  0.28513084  0.49469511    -0.83300
C559        C  0.81174435  0.30333388  0.97178425     0.97300
O560        O  0.82659463  0.27645463  0.95756344    -0.83300
O561        O  0.85189828  0.20043229  0.94972546    -0.85900
C562        C  0.89355372  0.21911263  0.96493728     1.01800
O563        O  0.89220837  0.21786012  0.99396748    -0.78700
O564        O  0.86209208  0.22348319  0.55308209    -0.78900
C565        C  0.87010510  0.26938656  0.55498127     1.01700
O566        O  0.76496408  0.18903921  0.56216310    -0.86200
O567        O  0.70303906  0.18483324  0.51347906    -0.83300
C568        C  0.68859782  0.18902774  0.98690565     0.97300
O569        O  0.71900280  0.20020787  0.96409893    -0.83300
O570        O  0.74578154  0.12396988  0.96066850    -0.85900
C571        C  0.76743506  0.09799561  0.96609186     1.01700
O572        O  0.80494235  0.11499370  0.98505798    -0.78700
O573        O  0.76616753  0.12365859  0.54212412    -0.78900
C574        C  0.74795448  0.14137684  0.56182887     1.01700
Cr575      Cr  0.77485308  0.23305023  0.52547983     1.93700
Cr576      Cr  0.78648690  0.20006556  0.96091141     1.93200
Cr577      Cr  0.82912871  0.17160152  0.51759185     1.39100
O578        O  0.79711393  0.20170646  0.50116826    -1.24000
O579        O  0.71231000  0.53597853  0.54103807    -0.86200
O580        O  0.69915924  0.47298701  0.49247958    -0.83300
C581        C  0.67700693  0.48399382  0.97123966     0.97300
O582        O  0.70189863  0.52470913  0.95562343    -0.83300
O583        O  0.77264552  0.62755903  0.94616613    -0.85900
C584        C  0.75906920  0.65257292  0.96360521     1.01800
O585        O  0.76228254  0.65036405  0.99248238    -0.78700
O586        O  0.77094691  0.61615031  0.55026394    -0.78900
C587        C  0.72700890  0.57727269  0.55558211     1.01700
O588        O  0.81468224  0.55209202  0.55213143    -0.86200
O589        O  0.80458396  0.49533500  0.50065981    -0.83300
C590        C  0.80301712  0.48353941  0.97250023     0.97300
O591        O  0.78413284  0.50079413  0.95302234    -0.83300
O592        O  0.85550598  0.60468051  0.95022564    -0.85900
C593        C  0.88133133  0.65187037  0.95684285     1.01700
O594        O  0.86297091  0.66993612  0.97621483    -0.78700
O595        O  0.86875017  0.62673437  0.53139481    -0.78900
C596        C  0.85970950  0.59117060  0.55028079     1.01700
Cr597      Cr  0.75956236  0.51836813  0.51962308     1.93700
Cr598      Cr  0.77892911  0.56506344  0.95450994     1.93200
Cr599      Cr  0.81383903  0.63569072  0.51145713     1.39100
O600        O  0.78365567  0.57290306  0.49529660    -1.24000
O601        O  0.77252036  0.82124532  0.87590274    -0.86200
O602        O  0.83820675  0.87640811  0.82987358    -0.83300
C603        C  0.82663019  0.84676267  0.80677935     0.97300
O604        O  0.78579625  0.83340793  0.79190295    -0.83300
O605        O  0.68551966  0.80972197  0.78234293    -0.85900
C606        C  0.66130007  0.76854389  0.79791340     1.01800
O607        O  0.66087074  0.77049981  0.82697370    -0.78700
O608        O  0.69341422  0.80331744  0.88657764    -0.78900
C609        C  0.73120981  0.79572805  0.89072663     1.01700
O610        O  0.76059513  0.90672546  0.89423017    -0.86200
O611        O  0.81747562  0.95903981  0.84476462    -0.83300
C612        C  0.83759543  0.97195210  0.81861756     0.97300
O613        O  0.81997747  0.94055123  0.79641779    -0.83300
O614        O  0.71816404  0.91725142  0.79317410    -0.85900
C615        C  0.67058729  0.89786930  0.79845799     1.01700
O616        O  0.64752385  0.85817684  0.81549061    -0.78700
O617        O  0.69057593  0.89747985  0.87240043    -0.78900
C618        C  0.72631035  0.91949027  0.89198579     1.01700
Cr619      Cr  0.79357191  0.88924195  0.85931257     1.93700
Cr620      Cr  0.75116534  0.87461249  0.79390260     1.93200
Cr621      Cr  0.67727534  0.83433884  0.84941760     1.39100
O622        O  0.74060316  0.86520542  0.83422417    -1.24000
O623        O  0.13135361  0.91322670  0.88837603    -0.86200
O624        O  0.12922107  0.96767186  0.83746342    -0.83300
C625        C  0.12897488  0.98052738  0.80989024     0.97300
O626        O  0.11488225  0.94726685  0.78865168    -0.83300
O627        O  0.19344495  0.92419312  0.78691501    -0.85900
C628        C  0.22215109  0.90661656  0.79489148     1.01800
O629        O  0.20446555  0.86881841  0.81323486    -0.78700
O630        O  0.19580287  0.90850707  0.86880535    -0.78900
C631        C  0.17902645  0.92816319  0.88809395     1.01700
O632        O  0.03713667  0.82745145  0.86869707    -0.86200
O633        O  0.02857284  0.88280551  0.82154249    -0.83300
C634        C  0.01071471  0.85017736  0.79987385     0.97300
O635        O  0.03980748  0.83835643  0.78524512    -0.83300
O636        O  0.11841689  0.81684230  0.77755971    -0.85900
C637        C  0.10560541  0.77702707  0.79360866     1.01700
O638        O  0.10606113  0.77899920  0.82268108    -0.78700
O639        O  0.09913424  0.81184528  0.88116403    -0.78900
C640        C  0.05270265  0.80196499  0.88364708     1.01700
Cr641      Cr  0.08411010  0.89631014  0.85212112     1.93700
Cr642      Cr  0.11663391  0.88108809  0.78773235     1.93200
Cr643      Cr  0.14892278  0.84429479  0.84538133     1.39100
O644        O  0.11602004  0.87323858  0.82833412    -1.24000
O645        O  0.09077116  0.24577017  0.89812930    -0.86200
O646        O  0.03462811  0.18878949  0.84933389    -0.83300
C647        C  0.02205276  0.16876906  0.82314287     0.97300
O648        O  0.05364298  0.18723546  0.80094760    -0.83300
O649        O  0.08201367  0.29040223  0.79716345    -0.85900
C650        C  0.10420736  0.33824502  0.80156989     1.01800
O651        O  0.14287729  0.35891140  0.81958817    -0.78700
O652        O  0.10173480  0.31608676  0.87627937    -0.78900
C653        C  0.07931799  0.28078630  0.89591886     1.01700
O654        O  0.17288069  0.22917650  0.87938657    -0.86200
O655        O  0.11426484  0.16470361  0.83438446    -0.83300
C656        C  0.14341937  0.17416178  0.81129046     0.97300
O657        O  0.15982341  0.21546531  0.79633425    -0.83300
O658        O  0.18819667  0.31703258  0.78709216    -0.85900
C659        C  0.22905173  0.34228190  0.80279403     1.01700
O660        O  0.22785945  0.34211402  0.83181903    -0.78700
O661        O  0.19245724  0.30800471  0.89117045    -0.78900
C662        C  0.19780272  0.26893880  0.89536644     1.01700
Cr663      Cr  0.10492784  0.21086815  0.86349905     1.93700
Cr664      Cr  0.12156728  0.25372984  0.79827484     1.93200
Cr665      Cr  0.16404335  0.32693910  0.85378111     1.39100
O666        O  0.13098384  0.26388630  0.83845608    -1.24000
C667        C  0.18524594  0.07622470  0.81630627    -0.02700
C668        C  0.14134762  0.03390594  0.80302218     0.07000
C669        C  0.10614472  0.04269038  0.78612588    -0.02800
C670        C  0.11333715  0.09252184  0.78395607    -0.02800
C671        C  0.15263511  0.13286637  0.80103403     0.07100
C672        C  0.18985719  0.12532592  0.81622213    -0.03000
Br673      Br  0.24430188  0.18132069  0.83907399    -0.01600
Br674      Br  0.23817801  0.06676018  0.83534930    -0.01600
Br675      Br  0.06580011  0.10465637  0.76027693    -0.02500
Br676      Br  0.04296452  0.98632867  0.77049323    -0.01600
C677        C  0.89207124  0.06020067  0.79621154    -0.02700
C678        C  0.88623602  0.02077025  0.81622293     0.07000
C679        C  0.92581763  0.02929234  0.83707395    -0.02800
C680        C  0.96937682  0.07811199  0.83964914    -0.02800
C681        C  0.97501882  0.11835730  0.82021505     0.07100
C682        C  0.93710997  0.10899402  0.79787196    -0.03000
Br683      Br  0.94519072  0.16358007  0.77107030    -0.01600
Br684      Br  0.83721607  0.04834658  0.76819706    -0.01600
Br685      Br  0.02081463  0.08827707  0.87021287    -0.01600
Br686      Br  0.92120624  0.97384354  0.86232786    -0.01600
C687        C  0.87219444  0.79853721  0.81721531    -0.02700
C688        C  0.86301964  0.82979474  0.79718538     0.07000
C689        C  0.89463989  0.85098900  0.77087933    -0.02800
C690        C  0.94036430  0.84840531  0.76799677    -0.02800
C691        C  0.95533372  0.82763562  0.79224033     0.07100
C692        C  0.91845925  0.79753219  0.81471966    -0.03000
Br693      Br  0.93126581  0.75491130  0.84194147    -0.01600
Br694      Br  0.82216721  0.75850255  0.84853841    -0.01600
Br695      Br  0.98210370  0.87212877  0.73124428    -0.01600
Br696      Br  0.87778568  0.88692447  0.74046246    -0.01600
C697        C  0.77437125  0.74158670  0.95523408    -0.02700
C698        C  0.74419917  0.68821450  0.94950807     0.07000
C699        C  0.70467758  0.67018243  0.92713372    -0.02800
C700        C  0.69719586  0.70534210  0.90946275    -0.02800
C701        C  0.72958330  0.75872133  0.91382422     0.07100
C702        C  0.76744607  0.77667157  0.93723835    -0.03000
Br703      Br  0.81229093  0.84984017  0.94348028    -0.01600
Br704      Br  0.82900813  0.76743411  0.98553096    -0.01600
Br705      Br  0.64612798  0.68042929  0.87719809    -0.01600
Br706      Br  0.66163182  0.59720726  0.92004896    -0.01600
C707        C  0.98900454  0.70987895  0.89564673    -0.02700
C708        C  0.01603916  0.76169230  0.90497864     0.07000
C709        C  0.00332202  0.77592110  0.93307740    -0.02800
C710        C  0.96359665  0.73859138  0.95177439    -0.02800
C711        C  0.93121867  0.68757918  0.94055794     0.07100
C712        C  0.94539936  0.67330587  0.91241804    -0.03000
Br713      Br  0.90477933  0.60541137  0.89454311    -0.01600
Br714      Br  0.01000712  0.68976067  0.85856871    -0.01600
Br715      Br  0.95685600  0.75875214  0.99318393    -0.01600
Br716      Br  0.03915242  0.84750806  0.94531920    -0.01600
C717        C  0.99622205  0.28096056  0.90234709    -0.02700
C718        C  0.03738377  0.27741857  0.91554552     0.07000
C719        C  0.03348664  0.26078282  0.94623149    -0.02800
C720        C  0.98595130  0.23904603  0.96179984    -0.02800
C721        C  0.94388612  0.24134297  0.94853116     0.07100
C722        C  0.95060437  0.26538866  0.91937639    -0.03000
Br723      Br  0.89854030  0.27829402  0.90211078    -0.01600
Br724      Br  0.00000397  0.30340565  0.86014926    -0.01600
Br725      Br  0.97851590  0.20082382  0.99922486    -0.01600
Br726      Br  0.09419787  0.27022579  0.96753489    -0.01600
C727        C  0.73142226  0.96018988  0.94383463    -0.02700
C728        C  0.73039708  0.96243088  0.91136333     0.07000
C729        C  0.73851274  0.00818763  0.89713120    -0.02800
C730        C  0.74941397  0.05179252  0.91505897    -0.02800
C731        C  0.75216790  0.05026850  0.94763970     0.07100
C732        C  0.74200232  0.00374299  0.96187178    -0.03000
Br733      Br  0.74023426  0.99875019  0.00613056    -0.01600
Br734      Br  0.71671510  0.89669059  0.96359477    -0.01600
Br735      Br  0.76432036  0.11475752  0.89423214    -0.01600
Br736      Br  0.73857048  0.01264574  0.85267401    -0.01600
C737        C  0.79367569  0.40860506  0.94027982    -0.02700
C738        C  0.81972577  0.44594166  0.96358245     0.07000
C739        C  0.85683564  0.44181440  0.98170363    -0.02800
C740        C  0.86052971  0.39702137  0.98042313    -0.02800
C741        C  0.82612628  0.35553329  0.96197761     0.07100
C742        C  0.79479201  0.36224862  0.94062608    -0.03000
Br743      Br  0.74883515  0.30543465  0.91455334    -0.01600
Br744      Br  0.75600215  0.41893334  0.90799721    -0.01600
Br745      Br  0.90999501  0.39056962  0.00568434    -0.01600
Br746      Br  0.90258263  0.49656893  0.00877617    -0.01600
C747        C  0.31557839  0.28457662  0.93661903    -0.02700
C748        C  0.29243367  0.24451647  0.95859053     0.07000
C749        C  0.23876441  0.22087080  0.96412204    -0.02800
C750        C  0.20756107  0.22905457  0.94338907    -0.02800
C751        C  0.23046415  0.26698757  0.92012060     0.07100
C752        C  0.28463656  0.29684516  0.91805819    -0.03000
Br753      Br  0.31611949  0.35101682  0.88775845    -0.01600
Br754      Br  0.38962850  0.32355989  0.93225896    -0.01600
Br755      Br  0.13350510  0.18380321  0.94502351    -0.01600
Br756      Br  0.20697974  0.17492290  0.99881082    -0.01600
C757        C  0.29417876  0.01334999  0.94094070    -0.02700
C758        C  0.28369737  0.05300947  0.94870964     0.07000
C759        C  0.23908486  0.05104053  0.93639060    -0.02800
C760        C  0.20387581  0.00925351  0.91828896    -0.02800
C761        C  0.21438766  0.96961958  0.91002328     0.07100
C762        C  0.25968536  0.97180428  0.92190385    -0.03000
Br763      Br  0.27359865  0.91654597  0.91408893    -0.01600
Br764      Br  0.35606473  0.01578408  0.95601728    -0.01600
Br765      Br  0.14228642  0.00953890  0.90441976    -0.01600
Br766      Br  0.22896950  0.10919187  0.94013694    -0.01600
C767        C  0.58443140  0.44018421  0.98773167    -0.02700
C768        C  0.62154941  0.44726900  0.96524385     0.07000
C769        C  0.60677439  0.41177604  0.94078464    -0.02800
C770        C  0.56095607  0.36359515  0.94316867    -0.02800
C771        C  0.52772116  0.35358582  0.96853058     0.07100
C772        C  0.53669023  0.39397606  0.98861470    -0.03000
Br773      Br  0.48334767  0.38573841  0.01696527    -0.01600
Br774      Br  0.59889006  0.49348647  0.01729227    -0.01600
Br775      Br  0.54563180  0.31041218  0.91318458    -0.01600
Br776      Br  0.64795717  0.42994939  0.90399141    -0.01600
C777        C  0.63117126  0.22129299  0.50392696    -0.02700
C778        C  0.63947724  0.18904492  0.98404725     0.07000
C779        C  0.60091331  0.15761636  0.96268246    -0.02800
C780        C  0.55234027  0.15503451  0.96333851    -0.02800
C781        C  0.54282105  0.18415746  0.98519395     0.07100
C782        C  0.58275533  0.21755378  0.50535265    -0.03000
Br783      Br  0.57271438  0.25911877  0.53579466    -0.01600
Br784      Br  0.68734936  0.27485141  0.52753871    -0.01600
Br785      Br  0.49789981  0.10894665  0.93610227    -0.01600
Br786      Br  0.61456024  0.11839302  0.93273906    -0.01600
C787        C  0.94984512  0.60497257  0.55784745    -0.02700
C788        C  0.90173686  0.59410675  0.57043494     0.07000
C789        C  0.89226607  0.58161122  0.60201261    -0.02800
C790        C  0.92802451  0.57537173  0.62010124    -0.02800
C791        C  0.97372461  0.58026697  0.60671085     0.07100
C792        C  0.98443884  0.59576324  0.57526928    -0.03000
Br793      Br  0.04326875  0.59941131  0.55409313    -0.01600
Br794      Br  0.96846188  0.63151456  0.51628788    -0.01600
Br795      Br  0.91351604  0.56118152  0.66354070    -0.01600
Br796      Br  0.83172020  0.57695738  0.62123336    -0.01600
C797        C  0.88389809  0.32601772  0.60038797    -0.02700
C798        C  0.90498293  0.30687890  0.57830852     0.07000
C799        C  0.95911268  0.33003277  0.57565504    -0.02800
C800        C  0.99177524  0.37192510  0.59478435    -0.02800
C801        C  0.97055963  0.39249091  0.61576047     0.07100
C802        C  0.91643047  0.36864102  0.61891447    -0.03000
Br803      Br  0.88640128  0.39749547  0.64632695    -0.01600
Br804      Br  0.80996129  0.29620255  0.60399045    -0.01600
Br805      Br  0.06574371  0.40130167  0.59205490    -0.01600
Br806      Br  0.98859246  0.30895470  0.54324716    -0.01600
C807        C  0.13688548  0.72101582  0.77218004    -0.02700
C808        C  0.09537945  0.72928685  0.77786708     0.07000
C809        C  0.04565029  0.69368885  0.76709140    -0.02800
C810        C  0.03738508  0.64966952  0.75052462    -0.02800
C811        C  0.07970344  0.64291171  0.74264107     0.07100
C812        C  0.12961404  0.67846379  0.75467510    -0.03000
Br813      Br  0.19056506  0.67255494  0.74715588    -0.01600
Br814      Br  0.20493545  0.76990118  0.78744421    -0.01600
Br815      Br  0.96734339  0.59693870  0.74157898    -0.01600
Br816      Br  0.98915155  0.70620683  0.77434230    -0.01600
C817        C  0.09418521  0.45461662  0.77457965    -0.02700
C818        C  0.07382150  0.43910839  0.74474434     0.07000
C819        C  0.05619515  0.38823005  0.73533851    -0.02800
C820        C  0.06329843  0.35415103  0.75434334    -0.02800
C821        C  0.08794891  0.37071467  0.78359066     0.07100
C822        C  0.10029961  0.42043102  0.79419542    -0.03000
Br823      Br  0.12374374  0.44212142  0.83591413    -0.01600
Br824      Br  0.11470968  0.52348419  0.78822055    -0.01600
Br825      Br  0.04106831  0.28622660  0.73808051    -0.01600
Br826      Br  0.02448333  0.36619907  0.69527826    -0.01600
C827        C  0.37552296  0.04322626  0.57581344    -0.02700
C828        C  0.38874788  0.09333881  0.58554672     0.07000
C829        C  0.41322825  0.11075093  0.61441944    -0.02800
C830        C  0.43279060  0.08340785  0.63044798    -0.02800
C831        C  0.42311169  0.03490800  0.61953411     0.07100
C832        C  0.39211119  0.01400198  0.59286856    -0.03000
Br833      Br  0.37090940  0.94471344  0.57955164    -0.01600
Br834      Br  0.33467554  0.01366953  0.53921398    -0.01600
Br835      Br  0.47675907  0.11598069  0.66577675    -0.01600
Br836      Br  0.41574747  0.16976555  0.63379416    -0.01600
C837        C  0.65212894  0.02447143  0.60931418    -0.02700
C838        C  0.61585352  0.03943991  0.61825266     0.07000
C839        C  0.62497991  0.08879043  0.60990066    -0.02800
C840        C  0.66986966  0.12314019  0.59374064    -0.02800
C841        C  0.70542109  0.10777015  0.58362280     0.07100
C842        C  0.69744615  0.05915132  0.59296403    -0.03000
Br843      Br  0.75096064  0.04183028  0.58653549    -0.01600
Br844      Br  0.64017287  0.95627670  0.61833278    -0.01600
Br845      Br  0.67994981  0.19120452  0.58629150    -0.01600
Br846      Br  0.57314428  0.10868681  0.61689582    -0.01600
C847        C  0.33576462  0.96424792  0.73764396    -0.02700
C848        C  0.36396249  0.94114002  0.74815259     0.07000
C849        C  0.35039310  0.91460741  0.77633871    -0.02800
C850        C  0.30862457  0.91032045  0.79370664    -0.02800
C851        C  0.27503290  0.92628606  0.78106689     0.07100
C852        C  0.29073165  0.95594152  0.75345095    -0.03000
Br853      Br  0.25118774  0.98453648  0.73570139    -0.01600
Br854      Br  0.35629705  0.00400947  0.70016847    -0.01600
Br855      Br  0.30063304  0.88466258  0.83543352    -0.01600
Br856      Br  0.38728749  0.88107711  0.79042923    -0.01600
C857        C  0.60089923  0.92218274  0.79879066    -0.02700
C858        C  0.64146009  0.92005487  0.78319792     0.07000
C859        C  0.65399516  0.93938713  0.75264788    -0.02800
C860        C  0.62383621  0.95662251  0.73743307    -0.02800
C861        C  0.57907574  0.95177911  0.75163676     0.07100
C862        C  0.57039840  0.93858375  0.78308862    -0.03000
Br863      Br  0.52036922  0.94857487  0.80534550    -0.01600
Br864      Br  0.58700524  0.90361701  0.84180114    -0.01600
Br865      Br  0.64322727  0.98477539  0.69649534    -0.01600
Br866      Br  0.70813919  0.93678711  0.72939401    -0.01600
C867        C  0.22155927  0.74756588  0.65883942    -0.02700
C868        C  0.21551225  0.70822396  0.63843346     0.07000
C869        C  0.25227391  0.72145197  0.61436641    -0.02800
C870        C  0.30008196  0.76784092  0.61609664    -0.02800
C871        C  0.31029376  0.80122802  0.64119064     0.07100
C872        C  0.26932493  0.79367748  0.66059616    -0.03000
Br873      Br  0.27832899  0.84704578  0.68879546    -0.01600
Br874      Br  0.16338012  0.74001674  0.68245679    -0.01600
Br875      Br  0.35198610  0.78534228  0.58467881    -0.01600
Br876      Br  0.23792765  0.67843722  0.57858896    -0.01600
C877        C  0.63841790  0.54264393  0.62512622    -0.02700
C878        C  0.61527386  0.57332416  0.62002835     0.07000
C879        C  0.63861316  0.61380836  0.59814002    -0.02800
C880        C  0.67688033  0.61652282  0.57785207    -0.02800
C881        C  0.69254090  0.57935177  0.57944347     0.07100
C882        C  0.67406541  0.54320385  0.60367696    -0.03000
Br883      Br  0.69635040  0.49311490  0.60739898    -0.01600
Br884      Br  0.62708715  0.50429889  0.66295058    -0.01600
Br885      Br  0.70421684  0.66876789  0.54624732    -0.01600
Br886      Br  0.62177004  0.66824814  0.59660747    -0.01600
C887        C  0.44094881  0.32147376  0.60573876    -0.02700
C888        C  0.40056880  0.30072459  0.58387311     0.07000
C889        C  0.36859623  0.32257995  0.58062074    -0.02800
C890        C  0.37939297  0.36707770  0.59757268    -0.02800
C891        C  0.42001900  0.38774419  0.61924064     0.07100
C892        C  0.44877461  0.36297455  0.62441102    -0.03000
Br893      Br  0.50141031  0.38763473  0.65586546    -0.01600
Br894      Br  0.48897584  0.29632211  0.60862152    -0.01600
Br895      Br  0.33901551  0.40006535  0.59086822    -0.01600
Br896      Br  0.31299272  0.29452393  0.55112210    -0.01600
C897        C  0.55308165  0.63423430  0.77738281    -0.02700
C898        C  0.57022563  0.62580476  0.74879619     0.07000
C899        C  0.62139936  0.66041185  0.73908001    -0.02800
C900        C  0.65221715  0.70595312  0.75598482    -0.02800
C901        C  0.63147247  0.71811253  0.78198152     0.07100
C902        C  0.58172188  0.68144695  0.79273997    -0.03000
Br903      Br  0.54876271  0.69745058  0.82593038    -0.01600
Br904      Br  0.49139618  0.57987116  0.79652202    -0.01600
Br905      Br  0.72253854  0.75136363  0.74276817    -0.01600
Br906      Br  0.64916417  0.64793731  0.70180745    -0.01600
C907        C  0.33821892  0.46221491  0.76824498    -0.02700
C908        C  0.36160283  0.44143268  0.74913117     0.07000
C909        C  0.34440057  0.38828071  0.75005858    -0.02800
C910        C  0.30223709  0.35572963  0.76897680    -0.02800
C911        C  0.27744057  0.37634165  0.78674454     0.07100
C912        C  0.29583288  0.42958562  0.78672727    -0.03000
Br913      Br  0.25988952  0.45743804  0.80968113    -0.01600
Br914      Br  0.36277485  0.53539479  0.76859471    -0.01600
Br915      Br  0.27708996  0.28269478  0.76971825    -0.01600
Br916      Br  0.37483239  0.35908271  0.72338051    -0.01600
C917        C  0.49036621  0.72565780  0.62177224    -0.02700
C918        C  0.50697973  0.70811288  0.64714074     0.07000
C919        C  0.53460465  0.74359479  0.67088225    -0.02800
C920        C  0.53220680  0.78900445  0.67395982    -0.02800
C921        C  0.50641410  0.80196130  0.65134886     0.07100
C922        C  0.49291437  0.77388126  0.62330754    -0.03000
Br923      Br  0.48071072  0.80142023  0.58605623    -0.01600
Br924      Br  0.46292922  0.68454819  0.58508323    -0.01600
Br925      Br  0.56549126  0.83253691  0.70911904    -0.01600
Br926      Br  0.57753280  0.73124551  0.69887114    -0.01600
C927        C  0.26864984  0.48288589  0.65561847    -0.02700
C928        C  0.30729650  0.51274804  0.63393824     0.07000
C929        C  0.29421163  0.53246174  0.60818842    -0.02800
C930        C  0.24586254  0.53017690  0.60733024    -0.02800
C931        C  0.21202825  0.51011647  0.63270758     0.07100
C932        C  0.22155616  0.48249016  0.65542108    -0.03000
Br933      Br  0.17071246  0.44441130  0.68656747    -0.01600
Br934      Br  0.27938881  0.44155046  0.68522530    -0.01600
Br935      Br  0.22632536  0.55543489  0.57218087    -0.01600
Br936      Br  0.34290309  0.56429158  0.57505305    -0.01600
loop_ 
_geom_bond_atom_site_label_1 
_geom_bond_atom_site_label_2 
_geom_bond_distance 
_geom_bond_site_symmetry_2 
_ccdc_geom_bond_type 
O1          Cr19   1.998       .  S
O1            C9   1.265       .  A
O2          Cr19   1.949       .  S
O2            C3   1.256       .  A
C3            O4   1.267       .  A
C3          C450   1.495       .  S
O4          Cr20   2.028       .  S
O5          Cr20   1.979       .  S
O5            C6   1.261       .  A
C6            O7   1.262       .  A
C6          C410   1.500       .  S
O7          Cr21   2.004       .  S
O8          Cr21   1.982       .  S
O8            C9   1.261       .  A
C9          C430   1.487       .  S
O10         Cr19   1.940       .  S
O10          C18   1.252       .  A
O11         Cr19   2.005       .  S
O11          C12   1.266       .  A
C12          O13   1.259       .  A
C12         C460   1.479       .  S
O13         Cr20   1.987       .  S
O14         Cr20   2.017       .  S
O14          C15   1.270       .  A
C15          O16   1.261       .  A
C15         C423   1.478       .  S
O16         Cr21   1.977       .  S
O17         Cr21   2.015       .  S
O17          C18   1.264       .  A
C18         C440   1.467       .  S
Cr19         O22   1.756       .  S
Cr20         O22   1.771       .  S
Cr21         O22   1.773       .  S
O23         Cr41   1.969       .  S
O23          C31   1.258       .  A
O24         Cr41   2.008       .  S
O24          C25   1.266       .  A
C25          O26   1.258       .  A
C25         C403   1.475       .  S
O26         Cr42   1.982       .  S
O27         Cr42   2.011       .  S
O27          C28   1.264   1_565  A
C28          O29   1.259       .  A
C28         C363   1.495       .  S
O29         Cr43   1.981   1_545  S
O30         Cr43   2.022       .  S
O30          C31   1.268       .  A
C31         C380   1.482       .  S
O32         Cr41   2.013       .  S
O32          C40   1.265       .  A
O33         Cr41   1.978       .  S
O33          C34   1.257       .  A
C34          O35   1.268       .  A
C34         C453   1.502       .  S
O35         Cr42   2.009       .  S
O36         Cr42   1.975       .  S
O36          C37   1.258   1_565  A
C37          O38   1.269       .  A
C37         C370   1.489       .  S
O38         Cr43   2.002   1_545  S
O39         Cr43   1.982       .  S
O39          C40   1.259       .  A
C40         C393   1.491       .  S
Cr41         O44   1.770       .  S
Cr42         O44   1.780       .  S
Cr43         O44   1.769       .  S
O45         Cr63   1.964       .  S
O45          C53   1.259       .  A
O46         Cr63   1.994       .  S
O46          C47   1.261       .  A
C47          O48   1.259       .  A
C47         C463   1.477       .  S
O48         Cr64   1.993       .  S
O49         Cr64   2.003       .  S
O49          C50   1.267       .  A
C50          O51   1.266       .  A
C50         C333   1.483   1_455  S
O51         Cr65   1.988       .  S
O52         Cr65   2.037       .  S
O52          C53   1.272       .  A
C53         C350   1.483       .  S
O54         Cr63   1.986       .  S
O54          C62   1.254       .  A
O55         Cr63   1.980       .  S
O55          C56   1.263       .  A
C56          O57   1.267       .  A
C56         C400   1.495       .  S
O57         Cr64   2.016       .  S
O58         Cr64   1.991       .  S
O58          C59   1.260       .  A
C59          O60   1.267   1_455  A
C59         C323   1.510   1_455  S
O60         Cr65   2.019   1_655  S
O61         Cr65   2.015       .  S
O61          C62   1.265       .  A
C62         C343   1.499       .  S
Cr63         O66   1.767       .  S
Cr64         O66   1.774       .  S
Cr65         O66   1.773       .  S
O67         Cr85   2.001       .  S
O67          C75   1.263       .  A
O68         Cr85   1.955       .  S
O68         C537   1.251   1_554  A
C69          O70   1.271       .  A
C69         O536   1.251       .  A
C69         C313   1.474       .  S
O70         Cr86   2.039       .  S
O71         Cr86   1.982       .  S
O71          C72   1.261       .  A
C72          O73   1.273       .  A
C72         C290   1.498       .  S
O73        Cr555   2.029       .  S
O74         Cr87   2.001       .  S
O74          C75   1.264       .  A
C75         C360   1.499       .  S
O76         Cr85   1.948       .  S
O76          C84   1.254       .  A
O77         Cr85   2.010   1_556  S
O77         C546   1.262       .  A
C78          O79   1.254       .  A
C78         O545   1.261       .  A
C78         C303   1.473       .  S
O79         Cr86   1.976       .  S
O80         Cr86   2.014       .  S
O80          C81   1.271       .  A
C81          O82   1.259       .  A
C81         C280   1.481       .  S
O82        Cr555   1.975       .  S
O83         Cr87   2.039       .  S
O83          C84   1.273       .  A
C84         C420   1.479       .  S
Cr85         O88   1.754       .  S
Cr86        O556   1.779       .  S
Cr87        O541   2.029   1_554  S
Cr87        O550   1.975       .  S
Cr87         O88   1.768       .  S
O88        Cr554   1.779   1_554  S
O89        Cr107   1.950       .  S
O89          C97   1.254       .  A
O90        Cr107   1.987   1_556  S
O90         C559   1.258       .  A
C91          O92   1.259       .  A
C91         O558   1.258       .  A
C91         C273   1.464       .  S
O92        Cr108   1.989       .  S
O93        Cr108   2.007       .  S
O93          C94   1.266       .  A
C94          O95   1.260       .  A
C94         C253   1.484       .  S
O95        Cr577   1.971       .  S
O96        Cr109   2.057       .  S
O96          C97   1.277       .  A
C97         C330   1.485       .  S
O98        Cr107   1.994       .  S
O98         C106   1.255       .  A
O99        Cr107   1.964       .  S
O99         C568   1.259   1_554  A
C100        O101   1.267       .  A
C100        O567   1.259       .  A
C100        C310   1.473       .  S
O101       Cr108   2.022       .  S
O102       Cr108   1.977       .  S
O102        C103   1.260       .  A
C103        O104   1.274       .  A
C103        C263   1.498       .  S
O104       Cr577   2.043       .  S
O105       Cr109   2.004       .  S
O105        C106   1.263       .  A
C106        C373   1.495       .  S
Cr107       O110   1.749       .  S
Cr108       O578   1.769       .  S
Cr109       O563   1.971   1_554  S
Cr109       O572   2.043   1_554  S
Cr109       O110   1.763       .  S
O110       Cr576   1.769   1_554  S
O111       Cr129   1.968       .  S
O111        C119   1.257       .  A
O112       Cr129   2.011   1_556  S
O112        C581   1.268       .  A
C113        O114   1.262       .  A
C113        O580   1.268       .  A
C113        C300   1.482       .  S
O114       Cr130   1.992       .  S
O115       Cr130   2.009       .  S
O115        C116   1.266       .  A
C116        O117   1.261       .  A
C116        C230   1.481       .  S
O117       Cr599   1.982       .  S
O118       Cr131   2.014       .  S
O118        C119   1.265       .  A
C119        C413   1.481       .  S
O120       Cr129   2.016       .  S
O120        C128   1.268       .  A
O121       Cr129   1.972       .  S
O121        C590   1.258   1_554  A
C122        O123   1.264       .  A
C122        O589   1.258       .  A
C122        C270   1.495       .  S
O123       Cr130   2.012       .  S
O124       Cr130   1.988       .  S
O124        C125   1.260       .  A
C125        O126   1.263       .  A
C125        C243   1.504       .  S
O126       Cr599   2.005       .  S
O127       Cr131   1.991       .  S
O127        C128   1.263       .  A
C128        C320   1.498       .  S
Cr129       O132   1.768   1_554  S
Cr130       O600   1.777       .  S
Cr131       O585   1.982   1_554  S
Cr131       O594   2.005   1_554  S
Cr131       O132   1.775   1_554  S
O132       Cr598   1.777       .  S
O133       Cr151   1.947       .  S
O133        C141   1.253       .  A
O134       Cr151   2.015       .  S
O134        C135   1.268       .  A
C135        O136   1.257       .  A
C135        C220   1.472       .  S
O136       Cr152   1.972       .  S
O137       Cr152   2.016       .  S
O137        C138   1.268       .  A
C138        O139   1.263       .  A
C138        C433   1.487       .  S
O139       Cr153   1.979       .  S
O140       Cr153   2.039       .  S
O140        C141   1.272       .  A
C141        C233   1.479       .  S
O142       Cr151   2.012       .  S
O142        C150   1.265       .  A
O143       Cr151   1.948       .  S
O143        C144   1.250       .  A
C144        O145   1.264       .  A
C144        C210   1.460   1_565  S
O145       Cr152   2.018       .  S
O146       Cr152   1.969       .  S
O146        C147   1.257       .  A
C147        O148   1.271       .  A
C147        C390   1.491       .  S
O148       Cr153   2.029       .  S
O149       Cr153   1.997       .  S
O149        C150   1.263       .  A
C150        C260   1.491       .  S
Cr151       O154   1.753       .  S
Cr152       O154   1.774       .  S
Cr153       O154   1.763       .  S
O155       Cr173   2.004       .  S
O155        C163   1.261       .  A
O156       Cr173   1.977       .  S
O156        C157   1.258       .  A
C157        O158   1.265       .  A
C157        C200   1.482   1_565  S
O158       Cr174   2.013       .  S
O159       Cr174   1.991       .  S
O159        C160   1.261       .  A
C160        O161   1.264       .  A
C160        C383   1.505       .  S
O161       Cr175   2.001       .  S
O162       Cr175   2.001       .  S
O162        C163   1.262       .  A
C163        C293   1.501       .  S
O164       Cr173   1.961       .  S
O164        C172   1.257       .  A
O165       Cr173   2.004       .  S
O165        C166   1.267       .  A
C166        O167   1.261       .  A
C166        C223   1.478   1_455  S
O167       Cr174   1.993       .  S
O168       Cr174   2.003       .  S
O168        C169   1.265       .  A
C169        O170   1.262       .  A
C169        C340   1.474       .  S
O170       Cr175   1.984       .  S
O171       Cr175   2.027       .  S
O171        C172   1.269       .  A
C172        C240   1.478       .  S
Cr173       O176   1.763       .  S
Cr174       O176   1.776       .  S
Cr175       O176   1.769       .  S
O177       Cr195   1.993       .  S
O177        C185   1.261       .  A
O178       Cr195   1.959       .  S
O178        C179   1.252       .  A
C179        O180   1.263       .  A
C179        C213   1.465   1_455  S
O180       Cr196   2.012       .  S
O181       Cr196   1.978       .  S
O181        C182   1.258       .  A
C182        O183   1.271       .  A
C182        C353   1.507       .  S
O183       Cr197   2.034       .  S
O184       Cr197   1.976       .  S
O184        C185   1.258       .  A
C185        C250   1.474       .  S
O186       Cr195   1.946       .  S
O186        C194   1.253       .  A
O187       Cr195   1.993       .  S
O187        C188   1.261       .  A
C188        O189   1.260       .  A
C188        C203   1.466       .  S
O189       Cr196   1.987       .  S
O190       Cr196   2.002       .  S
O190        C191   1.267       .  A
C191        O192   1.260       .  A
C191        C443   1.461       .  S
O192       Cr197   1.967       .  S
O193       Cr197   2.042       .  S
O193        C194   1.273       .  A
C194        C283   1.474       .  S
Cr195       O198   1.753       .  S
Cr196       O198   1.768       .  S
Cr197       O198   1.768       .  S
C199        C200   1.413       .  A
C199        C204   1.409       .  A
C199       Br206   1.929       .  S
C200        C201   1.413       .  A
C201        C202   1.403       .  A
C201       Br208   1.920   1_545  S
C202        C203   1.404       .  A
C202       Br207   1.932       .  S
C203        C204   1.407       .  A
C204       Br205   1.928       .  S
C209        C210   1.406       .  A
C209        C214   1.408       .  A
C209       Br216   1.928       .  S
C210        C211   1.409       .  A
C211        C212   1.393       .  A
C211       Br218   1.939   1_545  S
C212        C213   1.412       .  A
C212       Br217   1.937   1_655  S
C213        C214   1.410       .  A
C214       Br215   1.923       .  S
C219        C220   1.404       .  A
C219        C224   1.401       .  A
C219       Br226   1.927       .  S
C220        C221   1.411       .  A
C221        C222   1.412       .  A
C221       Br228   1.926       .  S
C222        C223   1.407       .  A
C222       Br227   1.925       .  S
C223        C224   1.406       .  A
C224       Br225   1.917       .  S
C229        C230   1.411       .  A
C229        C234   1.408       .  A
C229       Br236   1.932       .  S
C230        C231   1.412       .  A
C231        C232   1.411       .  A
C231       Br238   1.929       .  S
C232        C233   1.408       .  A
C232       Br237   1.927       .  S
C233        C234   1.413       .  A
C234       Br235   1.934       .  S
C239        C240   1.405   1_655  A
C239        C244   1.412       .  A
C239       Br246   1.928   1_655  S
C240        C241   1.404       .  A
C241        C242   1.408   1_455  A
C241       Br248   1.933       .  S
C242        C243   1.425       .  A
C242       Br247   1.937       .  S
C243        C244   1.425       .  A
C244       Br245   1.936       .  S
C249        C250   1.409   1_655  A
C249        C254   1.406       .  A
C249       Br256   1.935       .  S
C250        C251   1.406       .  A
C251        C252   1.402   1_455  A
C251       Br258   1.928       .  S
C252        C253   1.417       .  A
C252       Br257   1.936       .  S
C253        C254   1.420       .  A
C254       Br255   1.934       .  S
C259        C260   1.412       .  A
C259        C264   1.416   1_565  A
C259       Br266   1.929       .  S
C260        C261   1.411   1_565  A
C261        C262   1.413       .  A
C261       Br268   1.934       .  S
C262        C263   1.418       .  A
C262       Br267   1.934       .  S
C263        C264   1.413       .  A
C264       Br265   1.925   1_545  S
C269        C270   1.418       .  A
C269        C274   1.408       .  A
C269       Br276   1.920       .  S
C270        C271   1.416       .  A
C271        C272   1.404       .  A
C271       Br278   1.924       .  S
C272        C273   1.402       .  A
C272       Br277   1.928       .  S
C273        C274   1.403       .  A
C274       Br275   1.931       .  S
C279        C280   1.413       .  A
C279        C284   1.409       .  A
C279       Br286   1.924       .  S
C280        C281   1.410       .  A
C281        C282   1.405       .  A
C281       Br288   1.936       .  S
C282        C283   1.414       .  A
C282       Br287   1.931       .  S
C283        C284   1.405       .  A
C284       Br285   1.928       .  S
C289        C290   1.414       .  A
C289        C294   1.419   1_545  A
C289       Br296   1.929       .  S
C290        C291   1.411       .  A
C291        C292   1.405       .  A
C291       Br298   1.921       .  S
C292        C293   1.419   1_545  A
C292       Br297   1.941       .  S
C293        C294   1.420       .  A
C294       Br295   1.930       .  S
C299        C300   1.409       .  A
C299        C304   1.405       .  A
C299       Br306   1.923       .  S
C300        C301   1.409       .  A
C301        C302   1.410       .  A
C301       Br308   1.917       .  S
C302        C303   1.408       .  A
C302       Br307   1.928       .  S
C303        C304   1.405       .  A
C304       Br305   1.925       .  S
C309        C314   1.395       .  A
C309        C778   1.409   1_554  A
C309       Br316   1.937       .  S
C310        C311   1.411       .  A
C310        C777   1.409       .  A
C311        C312   1.414       .  A
C311       Br318   1.927       .  S
C312        C313   1.411       .  A
C312       Br317   1.925       .  S
C313        C782   1.415       .  A
C314        C781   1.415   1_554  A
C314       Br315   1.939       .  S
C319        C320   1.413       .  A
C319        C324   1.417       .  A
C319       Br326   1.936       .  S
C320        C321   1.411       .  A
C321        C322   1.413       .  A
C321       Br328   1.930       .  S
C322        C323   1.420       .  A
C322       Br327   1.932       .  S
C323        C324   1.424       .  A
C324       Br325   1.934   1_655  S
C329        C330   1.415       .  A
C329        C334   1.408       .  A
C329       Br336   1.929       .  S
C330        C331   1.408       .  A
C331        C332   1.412       .  A
C331       Br338   1.924       .  S
C332        C333   1.414       .  A
C332       Br337   1.928   1_655  S
C333        C334   1.408       .  A
C334       Br335   1.934       .  S
C339        C340   1.402       .  A
C339        C344   1.405       .  A
C339       Br346   1.933       .  S
C340        C341   1.406       .  A
C341        C342   1.412       .  A
C341       Br348   1.929   1_455  S
C342        C343   1.418       .  A
C342       Br347   1.928   1_455  S
C343        C344   1.429       .  A
C344       Br345   1.942       .  S
C349        C350   1.408       .  A
C349        C354   1.414       .  A
C349       Br356   1.930       .  S
C350        C351   1.403       .  A
C351        C352   1.411       .  A
C351       Br358   1.933       .  S
C352        C353   1.427       .  A
C352       Br357   1.933       .  S
C353        C354   1.422       .  A
C354       Br355   1.933       .  S
C359        C360   1.414       .  A
C359        C364   1.415       .  A
C359       Br366   1.929       .  S
C360        C361   1.413       .  A
C361        C362   1.408       .  A
C361       Br368   1.927       .  S
C362        C363   1.415       .  A
C362       Br367   1.937       .  S
C363        C364   1.419       .  A
C364       Br365   1.933   1_545  S
C369        C370   1.418       .  A
C369        C374   1.415       .  A
C369       Br376   1.933   1_545  S
C370        C371   1.412       .  A
C371        C372   1.401       .  A
C371       Br378   1.942       .  S
C372        C373   1.422       .  A
C372       Br377   1.936       .  S
C373        C374   1.415       .  A
C374       Br375   1.932       .  S
C379        C380   1.410       .  A
C379        C384   1.414       .  A
C379       Br386   1.925   1_565  S
C380        C381   1.403       .  A
C381        C382   1.405       .  A
C381       Br388   1.928       .  S
C382        C383   1.422       .  A
C382       Br387   1.935       .  S
C383        C384   1.424       .  A
C384       Br385   1.936       .  S
C389        C390   1.415       .  A
C389        C394   1.411       .  A
C389       Br396   1.931       .  S
C390        C391   1.419       .  A
C391        C392   1.409       .  A
C391       Br398   1.938       .  S
C392        C393   1.410       .  A
C392       Br397   1.926       .  S
C393        C394   1.408       .  A
C394       Br395   1.922       .  S
C399        C400   1.413       .  A
C399        C404   1.406       .  A
C399       Br406   1.928       .  S
C400        C401   1.418       .  A
C401        C402   1.410       .  A
C401       Br408   1.925       .  S
C402        C403   1.405       .  A
C402       Br407   1.926       .  S
C403        C404   1.405       .  A
C404       Br405   1.924       .  S
C409        C410   1.419       .  A
C409        C414   1.406       .  A
C409       Br416   1.934       .  S
C410        C411   1.419       .  A
C411        C412   1.410       .  A
C411       Br418   1.937       .  S
C412        C413   1.411       .  A
C412       Br417   1.928       .  S
C413        C414   1.409       .  A
C414       Br415   1.932       .  S
C419        C420   1.412       .  A
C419        C424   1.403       .  A
C419       Br426   1.931       .  S
C420        C421   1.411       .  A
C421        C422   1.413       .  A
C421       Br428   1.927       .  S
C422        C423   1.411       .  A
C422       Br427   1.929       .  S
C423        C424   1.408       .  A
C424       Br425   1.930       .  S
C429        C430   1.411       .  A
C429        C434   1.403       .  A
C429       Br436   1.930       .  S
C430        C431   1.413       .  A
C431        C432   1.412       .  A
C431       Br438   1.935       .  S
C432        C433   1.418       .  A
C432       Br437   1.929       .  S
C433        C434   1.412       .  A
C434       Br435   1.933       .  S
C439        C440   1.413       .  A
C439        C444   1.399       .  A
C439       Br446   1.935       .  S
C440        C441   1.410       .  A
C441        C442   1.406       .  A
C441       Br448   1.930       .  S
C442        C443   1.407       .  A
C442       Br447   1.928       .  S
C443        C444   1.405       .  A
C444       Br445   1.933       .  S
C449        C450   1.415       .  A
C449        C454   1.412       .  A
C449       Br456   1.928       .  S
C450        C451   1.413       .  A
C451        C452   1.406       .  A
C451       Br458   1.935       .  S
C452        C453   1.419       .  A
C452       Br457   1.930       .  S
C453        C454   1.419       .  A
C454       Br455   1.933       .  S
C459        C460   1.406       .  A
C459        C464   1.401       .  A
C459       Br466   1.922       .  S
C460        C461   1.410       .  A
C461        C462   1.412       .  A
C461       Br468   1.921       .  S
C462        C463   1.407       .  A
C462       Br467   1.921       .  S
C463        C464   1.407       .  A
C464       Br465   1.920       .  S
O469       Cr487   1.998       .  S
O469        C477   1.265       .  A
O470       Cr487   1.949       .  S
O470        C471   1.256       .  A
C471        O472   1.267       .  A
C471        C918   1.495       .  S
O472       Cr488   2.028       .  S
O473       Cr488   1.979       .  S
O473        C474   1.261       .  A
C474        O475   1.262       .  A
C474        C878   1.500       .  S
O475       Cr489   2.004       .  S
O476       Cr489   1.982       .  S
O476        C477   1.261       .  A
C477        C898   1.487       .  S
O478       Cr487   1.940       .  S
O478        C486   1.252       .  A
O479       Cr487   2.005       .  S
O479        C480   1.265       .  A
C480        O481   1.259       .  A
C480        C928   1.478       .  S
O481       Cr488   1.987       .  S
O482       Cr488   2.017       .  S
O482        C483   1.270       .  A
C483        O484   1.261       .  A
C483        C891   1.478       .  S
O484       Cr489   1.977       .  S
O485       Cr489   2.015       .  S
O485        C486   1.264       .  A
C486        C908   1.467       .  S
Cr487       O490   1.756       .  S
Cr488       O490   1.771       .  S
Cr489       O490   1.773       .  S
O491       Cr509   1.968       .  S
O491        C499   1.258       .  A
O492       Cr509   2.008       .  S
O492        C493   1.266       .  A
C493        O494   1.258       .  A
C493        C871   1.475       .  S
O494       Cr510   1.982       .  S
O495       Cr510   2.011       .  S
O495        C496   1.264   1_565  A
C496        O497   1.259       .  A
C496        C831   1.495       .  S
O497       Cr511   1.981   1_545  S
O498       Cr511   2.022       .  S
O498        C499   1.268       .  A
C499        C848   1.482       .  S
O500       Cr509   2.013       .  S
O500        C508   1.265       .  A
O501       Cr509   1.978       .  S
O501        C502   1.257       .  A
C502        O503   1.267       .  A
C502        C921   1.502       .  S
O503       Cr510   2.008       .  S
O504       Cr510   1.975       .  S
O504        C505   1.258   1_565  A
C505        O506   1.269       .  A
C505        C838   1.489       .  S
O506       Cr511   2.001   1_545  S
O507       Cr511   1.982       .  S
O507        C508   1.259       .  A
C508        C861   1.491       .  S
Cr509       O512   1.770       .  S
Cr510       O512   1.780       .  S
Cr511       O512   1.770       .  S
O513       Cr531   1.964       .  S
O513        C521   1.259       .  A
O514       Cr531   1.994       .  S
O514        C515   1.261       .  A
C515        O516   1.259       .  A
C515        C931   1.477       .  S
O516       Cr532   1.993       .  S
O517       Cr532   2.003       .  S
O517        C518   1.267       .  A
C518        O519   1.266       .  A
C518        C801   1.483   1_455  S
O519       Cr533   1.988       .  S
O520       Cr533   2.037       .  S
O520        C521   1.272       .  A
C521        C818   1.483       .  S
O522       Cr531   1.986       .  S
O522        C530   1.254       .  A
O523       Cr531   1.980       .  S
O523        C524   1.263       .  A
C524        O525   1.267       .  A
C524        C868   1.495       .  S
O525       Cr532   2.015       .  S
O526       Cr532   1.991       .  S
O526        C527   1.260       .  A
C527        O528   1.267   1_455  A
C527        C791   1.510   1_455  S
O528       Cr533   2.019   1_655  S
O529       Cr533   2.015       .  S
O529        C530   1.265       .  A
C530        C811   1.499       .  S
Cr531       O534   1.767       .  S
Cr532       O534   1.774       .  S
Cr533       O534   1.772       .  S
O535       Cr553   2.001       .  S
O535        C543   1.263       .  A
O536       Cr553   1.954       .  S
C537        O538   1.271       .  A
C537        C781   1.474       .  S
O538       Cr554   2.038       .  S
O539       Cr554   1.982       .  S
O539        C540   1.261       .  A
C540        O541   1.273       .  A
C540        C758   1.498       .  S
O542       Cr555   2.001       .  S
O542        C543   1.264       .  A
C543        C828   1.499       .  S
O544       Cr553   1.948       .  S
O544        C552   1.254       .  A
O545       Cr553   2.010       .  S
C546        O547   1.254       .  A
C546        C771   1.473       .  S
O547       Cr554   1.976       .  S
O548       Cr554   2.014       .  S
O548        C549   1.271       .  A
C549        O550   1.259   1_556  A
C549        C748   1.481       .  S
O551       Cr555   2.039       .  S
O551        C552   1.273       .  A
C552        C888   1.479       .  S
Cr553       O556   1.754       .  S
Cr555       O556   1.768       .  S
O557       Cr575   1.950       .  S
O557        C565   1.254       .  A
O558       Cr575   1.987       .  S
C559        O560   1.259       .  A
C559        C741   1.464       .  S
O560       Cr576   1.989       .  S
O561       Cr576   2.007       .  S
O561        C562   1.266       .  A
C562        O563   1.260       .  A
C562        C721   1.484       .  S
O564       Cr577   2.057       .  S
O564        C565   1.277       .  A
C565        C798   1.485       .  S
O566       Cr575   1.993       .  S
O566        C574   1.255       .  A
O567       Cr575   1.964       .  S
C568        O569   1.267       .  A
C568        C778   1.473       .  S
O569       Cr576   2.022       .  S
O570       Cr576   1.977       .  S
O570        C571   1.260       .  A
C571        O572   1.274       .  A
C571        C731   1.498       .  S
O573       Cr577   2.004       .  S
O573        C574   1.263       .  A
C574        C841   1.495       .  S
Cr575       O578   1.749       .  S
Cr577       O578   1.764       .  S
O579       Cr597   1.968       .  S
O579        C587   1.257       .  A
O580       Cr597   2.011       .  S
C581        O582   1.262       .  A
C581        C768   1.482       .  S
O582       Cr598   1.992       .  S
O583       Cr598   2.009       .  S
O583        C584   1.266       .  A
C584        O585   1.261       .  A
C584        C698   1.481       .  S
O586       Cr599   2.014       .  S
O586        C587   1.265       .  A
C587        C881   1.481       .  S
O588       Cr597   2.016       .  S
O588        C596   1.268       .  A
O589       Cr597   1.972       .  S
C590        O591   1.264       .  A
C590        C738   1.495       .  S
O591       Cr598   2.012       .  S
O592       Cr598   1.988       .  S
O592        C593   1.260       .  A
C593        O594   1.263       .  A
C593        C711   1.504       .  S
O595       Cr599   1.991       .  S
O595        C596   1.263       .  A
C596        C788   1.498       .  S
Cr597       O600   1.768       .  S
Cr599       O600   1.775       .  S
O601       Cr619   1.947       .  S
O601        C609   1.253       .  A
O602       Cr619   2.015       .  S
O602        C603   1.268       .  A
C603        O604   1.257       .  A
C603        C688   1.472       .  S
O604       Cr620   1.972       .  S
O605       Cr620   2.016       .  S
O605        C606   1.268       .  A
C606        O607   1.262       .  A
C606        C901   1.487       .  S
O607       Cr621   1.979       .  S
O608       Cr621   2.039       .  S
O608        C609   1.272       .  A
C609        C701   1.479       .  S
O610       Cr619   2.012       .  S
O610        C618   1.265       .  A
O611       Cr619   1.948       .  S
O611        C612   1.250       .  A
C612        O613   1.264       .  A
C612        C678   1.460   1_565  S
O613       Cr620   2.018       .  S
O614       Cr620   1.969       .  S
O614        C615   1.257       .  A
C615        O616   1.271       .  A
C615        C858   1.491       .  S
O616       Cr621   2.029       .  S
O617       Cr621   1.996       .  S
O617        C618   1.263       .  A
C618        C728   1.491       .  S
Cr619       O622   1.753       .  S
Cr620       O622   1.774       .  S
Cr621       O622   1.763       .  S
O623       Cr641   2.004       .  S
O623        C631   1.260       .  A
O624       Cr641   1.977       .  S
O624        C625   1.258       .  A
C625        O626   1.266       .  A
C625        C668   1.482   1_565  S
O626       Cr642   2.013       .  S
O627       Cr642   1.990       .  S
O627        C628   1.261       .  A
C628        O629   1.264       .  A
C628        C851   1.504       .  S
O629       Cr643   2.001       .  S
O630       Cr643   2.001       .  S
O630        C631   1.262       .  A
C631        C761   1.501       .  S
O632       Cr641   1.961       .  S
O632        C640   1.257       .  A
O633       Cr641   2.004       .  S
O633        C634   1.267       .  A
C634        O635   1.261       .  A
C634        C691   1.478   1_455  S
O635       Cr642   1.993       .  S
O636       Cr642   2.004       .  S
O636        C637   1.265       .  A
C637        O638   1.262       .  A
C637        C808   1.474       .  S
O638       Cr643   1.984       .  S
O639       Cr643   2.027       .  S
O639        C640   1.269       .  A
C640        C708   1.478       .  S
Cr641       O644   1.763       .  S
Cr642       O644   1.776       .  S
Cr643       O644   1.769       .  S
O645       Cr663   1.993       .  S
O645        C653   1.261       .  A
O646       Cr663   1.959       .  S
O646        C647   1.252       .  A
C647        O648   1.263       .  A
C647        C681   1.465   1_455  S
O648       Cr664   2.012       .  S
O649       Cr664   1.978       .  S
O649        C650   1.258       .  A
C650        O651   1.271       .  A
C650        C821   1.507       .  S
O651       Cr665   2.034       .  S
O652       Cr665   1.976       .  S
O652        C653   1.258       .  A
C653        C718   1.474       .  S
O654       Cr663   1.946       .  S
O654        C662   1.253       .  A
O655       Cr663   1.994       .  S
O655        C656   1.261       .  A
C656        O657   1.260       .  A
C656        C671   1.466       .  S
O657       Cr664   1.987       .  S
O658       Cr664   2.002       .  S
O658        C659   1.267       .  A
C659        O660   1.260       .  A
C659        C911   1.460       .  S
O660       Cr665   1.967       .  S
O661       Cr665   2.042       .  S
O661        C662   1.273       .  A
C662        C751   1.474       .  S
Cr663       O666   1.753       .  S
Cr664       O666   1.768       .  S
Cr665       O666   1.768       .  S
C667        C668   1.413       .  A
C667        C672   1.409       .  A
C667       Br674   1.929       .  S
C668        C669   1.413       .  A
C669        C670   1.403       .  A
C669       Br676   1.920   1_545  S
C670        C671   1.404       .  A
C670       Br675   1.932       .  S
C671        C672   1.407       .  A
C672       Br673   1.928       .  S
C677        C678   1.406       .  A
C677        C682   1.408       .  A
C677       Br684   1.928       .  S
C678        C679   1.409       .  A
C679        C680   1.393       .  A
C679       Br686   1.939   1_545  S
C680        C681   1.412       .  A
C680       Br685   1.937   1_655  S
C681        C682   1.410       .  A
C682       Br683   1.923       .  S
C687        C688   1.404       .  A
C687        C692   1.401       .  A
C687       Br694   1.927       .  S
C688        C689   1.411       .  A
C689        C690   1.412       .  A
C689       Br696   1.926       .  S
C690        C691   1.406       .  A
C690       Br695   1.925       .  S
C691        C692   1.406       .  A
C692       Br693   1.916       .  S
C697        C698   1.411       .  A
C697        C702   1.408       .  A
C697       Br704   1.932       .  S
C698        C699   1.412       .  A
C699        C700   1.411       .  A
C699       Br706   1.929       .  S
C700        C701   1.408       .  A
C700       Br705   1.927       .  S
C701        C702   1.413       .  A
C702       Br703   1.934       .  S
C707        C708   1.405   1_655  A
C707        C712   1.412       .  A
C707       Br714   1.928   1_655  S
C708        C709   1.404       .  A
C709        C710   1.408   1_455  A
C709       Br716   1.933       .  S
C710        C711   1.425       .  A
C710       Br715   1.937       .  S
C711        C712   1.425       .  A
C712       Br713   1.936       .  S
C717        C718   1.409   1_655  A
C717        C722   1.406       .  A
C717       Br724   1.935   1_655  S
C718        C719   1.406       .  A
C719        C720   1.401   1_455  A
C719       Br726   1.928       .  S
C720        C721   1.416       .  A
C720       Br725   1.936       .  S
C721        C722   1.420       .  A
C722       Br723   1.934       .  S
C727        C728   1.412       .  A
C727        C732   1.416   1_565  A
C727       Br734   1.929       .  S
C728        C729   1.411   1_565  A
C729        C730   1.413       .  A
C729       Br736   1.934       .  S
C730        C731   1.418       .  A
C730       Br735   1.934       .  S
C731        C732   1.413       .  A
C732       Br733   1.925   1_546  S
C737        C738   1.418       .  A
C737        C742   1.408       .  A
C737       Br744   1.919       .  S
C738        C739   1.416       .  A
C739        C740   1.404       .  A
C739       Br746   1.924   1_556  S
C740        C741   1.402       .  A
C740       Br745   1.928   1_556  S
C741        C742   1.403       .  A
C742       Br743   1.931       .  S
C747        C748   1.413       .  A
C747        C752   1.409       .  A
C747       Br754   1.924       .  S
C748        C749   1.410       .  A
C749        C750   1.405       .  A
C749       Br756   1.936       .  S
C750        C751   1.414       .  A
C750       Br755   1.931       .  S
C751        C752   1.405       .  A
C752       Br753   1.928       .  S
C757        C758   1.414       .  A
C757        C762   1.419   1_545  A
C757       Br764   1.929       .  S
C758        C759   1.411       .  A
C759        C760   1.406       .  A
C759       Br766   1.921       .  S
C760        C761   1.419   1_545  A
C760       Br765   1.942       .  S
C761        C762   1.420       .  A
C762       Br763   1.930       .  S
C767        C768   1.409       .  A
C767        C772   1.405       .  A
C767       Br774   1.923   1_556  S
C768        C769   1.409       .  A
C769        C770   1.410       .  A
C769       Br776   1.917       .  S
C770        C771   1.408       .  A
C770       Br775   1.928       .  S
C771        C772   1.405       .  A
C772       Br773   1.925   1_556  S
C777        C782   1.395       .  A
C777       Br784   1.937       .  S
C778        C779   1.411       .  A
C779        C780   1.414       .  A
C779       Br786   1.927       .  S
C780        C781   1.411       .  A
C780       Br785   1.925       .  S
C782       Br783   1.939       .  S
C787        C788   1.413       .  A
C787        C792   1.417       .  A
C787       Br794   1.936       .  S
C788        C789   1.411       .  A
C789        C790   1.413       .  A
C789       Br796   1.930       .  S
C790        C791   1.420       .  A
C790       Br795   1.932       .  S
C791        C792   1.424       .  A
C792       Br793   1.934   1_655  S
C797        C798   1.415       .  A
C797        C802   1.408       .  A
C797       Br804   1.929       .  S
C798        C799   1.408       .  A
C799        C800   1.412       .  A
C799       Br806   1.924       .  S
C800        C801   1.414       .  A
C800       Br805   1.928   1_655  S
C801        C802   1.408       .  A
C802       Br803   1.934       .  S
C807        C808   1.402       .  A
C807        C812   1.405       .  A
C807       Br814   1.933       .  S
C808        C809   1.406       .  A
C809        C810   1.412       .  A
C809       Br816   1.929   1_455  S
C810        C811   1.418       .  A
C810       Br815   1.927   1_455  S
C811        C812   1.429       .  A
C812       Br813   1.942       .  S
C817        C818   1.408       .  A
C817        C822   1.414       .  A
C817       Br824   1.930       .  S
C818        C819   1.403       .  A
C819        C820   1.411       .  A
C819       Br826   1.933       .  S
C820        C821   1.427       .  A
C820       Br825   1.933       .  S
C821        C822   1.422       .  A
C822       Br823   1.934       .  S
C827        C828   1.414       .  A
C827        C832   1.415       .  A
C827       Br834   1.929       .  S
C828        C829   1.414       .  A
C829        C830   1.408       .  A
C829       Br836   1.927       .  S
C830        C831   1.415       .  A
C830       Br835   1.937       .  S
C831        C832   1.418       .  A
C832       Br833   1.933   1_545  S
C837        C838   1.418       .  A
C837        C842   1.415       .  A
C837       Br844   1.933   1_545  S
C838        C839   1.412       .  A
C839        C840   1.401       .  A
C839       Br846   1.942       .  S
C840        C841   1.422       .  A
C840       Br845   1.936       .  S
C841        C842   1.415       .  A
C842       Br843   1.932       .  S
C847        C848   1.410       .  A
C847        C852   1.414       .  A
C847       Br854   1.925   1_565  S
C848        C849   1.403       .  A
C849        C850   1.405       .  A
C849       Br856   1.928       .  S
C850        C851   1.422       .  A
C850       Br855   1.935       .  S
C851        C852   1.424       .  A
C852       Br853   1.936       .  S
C857        C858   1.415       .  A
C857        C862   1.411       .  A
C857       Br864   1.931       .  S
C858        C859   1.419       .  A
C859        C860   1.409       .  A
C859       Br866   1.938       .  S
C860        C861   1.410       .  A
C860       Br865   1.926       .  S
C861        C862   1.408       .  A
C862       Br863   1.923       .  S
C867        C868   1.413       .  A
C867        C872   1.406       .  A
C867       Br874   1.928       .  S
C868        C869   1.418       .  A
C869        C870   1.410       .  A
C869       Br876   1.925       .  S
C870        C871   1.406       .  A
C870       Br875   1.926       .  S
C871        C872   1.405       .  A
C872       Br873   1.924       .  S
C877        C878   1.419       .  A
C877        C882   1.406       .  A
C877       Br884   1.934       .  S
C878        C879   1.419       .  A
C879        C880   1.410       .  A
C879       Br886   1.937       .  S
C880        C881   1.411       .  A
C880       Br885   1.928       .  S
C881        C882   1.409       .  A
C882       Br883   1.932       .  S
C887        C888   1.412       .  A
C887        C892   1.403       .  A
C887       Br894   1.931       .  S
C888        C889   1.411       .  A
C889        C890   1.413       .  A
C889       Br896   1.927       .  S
C890        C891   1.411       .  A
C890       Br895   1.929       .  S
C891        C892   1.408       .  A
C892       Br893   1.930       .  S
C897        C898   1.411       .  A
C897        C902   1.403       .  A
C897       Br904   1.930       .  S
C898        C899   1.413       .  A
C899        C900   1.412       .  A
C899       Br906   1.935       .  S
C900        C901   1.418       .  A
C900       Br905   1.929       .  S
C901        C902   1.412       .  A
C902       Br903   1.933       .  S
C907        C908   1.413       .  A
C907        C912   1.399       .  A
C907       Br914   1.935       .  S
C908        C909   1.410       .  A
C909        C910   1.406       .  A
C909       Br916   1.930       .  S
C910        C911   1.407       .  A
C910       Br915   1.928       .  S
C911        C912   1.405       .  A
C912       Br913   1.933       .  S
C917        C918   1.415       .  A
C917        C922   1.412       .  A
C917       Br924   1.928       .  S
C918        C919   1.413       .  A
C919        C920   1.406       .  A
C919       Br926   1.935       .  S
C920        C921   1.419       .  A
C920       Br925   1.930       .  S
C921        C922   1.419       .  A
C922       Br923   1.933       .  S
C927        C928   1.406       .  A
C927        C932   1.401       .  A
C927       Br934   1.922       .  S
C928        C929   1.409       .  A
C929        C930   1.412       .  A
C929       Br936   1.921       .  S
C930        C931   1.407       .  A
C930       Br935   1.921       .  S
C931        C932   1.407       .  A
C932       Br933   1.921       .  S
