geometry optimzed in LAMMPS
_audit_creation_date              2020-11-30 
_audit_creation_method            'lammps2cif' 
_symmetry_space_group_name_H-M    'P1' 
_symmetry_Int_Tables_number       1 
_symmetry_cell_setting            triclinic 
loop_ 
_symmetry_equiv_pos_as_xyz 
  x,y,z 
_cell_length_a                    36.2014829471001 
_cell_length_b                    41.21261104628487 
_cell_length_c                    25.63542499023266 
_cell_angle_alpha                 89.25283252114025 
_cell_angle_beta                  90.9975634270982 
_cell_angle_gamma                 91.90158670023354 
loop_ 
_atom_site_label 
_atom_site_type_symbol 
_atom_site_fract_x 
_atom_site_fract_y 
_atom_site_fract_z 
_atom_site_charge 
O1          O  0.19104152  0.38836612  0.44563724    -0.85560
O2          O  0.21989961  0.32636617  0.45129082    -0.82610
C3          C  0.20493186  0.30807880  0.41778269     0.97900
O4          O  0.20634933  0.31586850  0.37017887    -0.82640
O5          O  0.21824567  0.35186015  0.28172520    -0.85280
C6          C  0.19312179  0.37241467  0.28270549     1.02430
O7          O  0.19843471  0.39856041  0.30711917    -0.78050
O8          O  0.20595200  0.43138774  0.39761494    -0.78230
C9          C  0.18459106  0.41670946  0.42901128     1.02380
O10         O  0.26194383  0.41445062  0.46339778    -0.85560
O11         O  0.29091106  0.35472644  0.45460231    -0.82620
C12         C  0.30033054  0.32844772  0.43479784     0.97920
O13         O  0.28381047  0.31698215  0.39494329    -0.82650
O14         O  0.29716123  0.35675775  0.31107913    -0.85250
C15         C  0.30333667  0.38398224  0.28957991     1.02390
O16         O  0.27976957  0.40596796  0.29216389    -0.78070
O17         O  0.28406633  0.43490527  0.39123013    -0.78220
C18         C  0.27998251  0.43662978  0.44013266     1.02360
Cr19       Cr  0.24115826  0.37125359  0.44777723     1.93740
Cr20       Cr  0.25096984  0.33878681  0.34204878     1.93210
Cr21       Cr  0.24258694  0.41399659  0.34852519     1.39100
O22         O  0.24526417  0.37473978  0.37928165    -1.23310
O23         O  0.05815870  0.10725208  0.44637150    -0.85560
O24         O  0.02707007  0.16763219  0.45763104    -0.82610
C25         C  0.04268324  0.18953837  0.43043434     0.97900
O26         O  0.54509591  0.18548571  0.38185501    -0.82640
O27         O  0.03805120  0.15514533  0.28569998    -0.85280
C28         C  0.06267613  0.13411662  0.28449120     1.02430
O29         O  0.05754185  0.10661043  0.30591029    -0.78050
O30         O  0.04598155  0.06756331  0.39154685    -0.78230
C31         C  0.06548185  0.07998015  0.42783905     1.02380
O32         O  0.48724206  0.07761007  0.45105196    -0.85560
O33         O  0.45721201  0.13863717  0.44669352    -0.82620
C34         C  0.44910448  0.16642660  0.42948505     0.97920
O35         O  0.46742521  0.18076955  0.39417224    -0.82650
O36         O  0.45836132  0.14713965  0.30461743    -0.85250
C37         C  0.45309278  0.12111086  0.28010027     1.02390
O38         O  0.47798489  0.10035271  0.27982852    -0.78070
O39         O  0.96806110  0.06636229  0.37213624    -0.78220
C40         C  0.46902781  0.05937101  0.42024531     1.02360
Cr41       Cr  0.00758921  0.12290855  0.44456225     1.93740
Cr42       Cr  0.50280271  0.16360817  0.34338037     1.93210
Cr43       Cr  0.01203360  0.08860818  0.33961639     1.39100
O44         O  0.00751466  0.12514860  0.37560798    -1.23310
O45         O  0.04475519  0.38872860  0.01119841    -0.85560
O46         O  0.00930774  0.32785465  0.00654650    -0.82610
C47         C  0.02679662  0.30925055  0.03656301     0.97900
O48         O  0.52858429  0.31532203  0.08461539    -0.82640
O49         O  0.02626839  0.34903205  0.17574760    -0.85280
C50         C  0.05097322  0.37144900  0.17542408     1.02430
O51         O  0.04540776  0.39806245  0.15242732    -0.78050
O52         O  0.03721918  0.43100837  0.06139140    -0.78230
C53         C  0.05495171  0.41657587  0.02711283     1.02380
O54         O  0.47669608  0.41797505  0.00062672    -0.85560
O55         O  0.44145375  0.35775012  0.01337857    -0.82620
C56         C  0.43117212  0.33128730  0.03479228     0.97920
O57         O  0.44952104  0.31857105  0.07177842    -0.82650
O58         O  0.44610439  0.35477134  0.15996327    -0.85250
C59         C  0.44247179  0.38217188  0.18031413     1.02390
O60         O  0.46621265  0.40490013  0.17311194    -0.78070
O61         O  0.95893187  0.43398894  0.07614039    -0.78220
C62         C  0.46056450  0.43839428  0.02742354     1.02360
Cr63       Cr  0.49309010  0.37318946  0.01415997     1.93740
Cr64       Cr  0.48813341  0.33787613  0.12036819     1.93210
Cr65       Cr  0.00116588  0.41336408  0.11393984     1.39060
O66         O  0.49394251  0.37480165  0.08330289    -1.23310
O67         O  0.20354645  0.10883400  0.01456329    -0.85560
O68         O  0.24342108  0.16601294  0.99797357    -0.82610
C69         C  0.22663390  0.18793501  0.02011457     0.97900
O70         O  0.22370869  0.18656391  0.06925858    -0.82640
O71         O  0.22524813  0.16001123  0.16947971    -0.85280
C72         C  0.20020500  0.13824819  0.17620611     1.02430
O73         O  0.20334379  0.11003394  0.15894055    -0.78050
O74         O  0.20808535  0.07084555  0.07560073    -0.78230
C75         C  0.19164096  0.08299088  0.03635795     1.02380
O76         O  0.26842395  0.07448463  0.01552197    -0.85560
O77         O  0.30872591  0.13289744  0.01809626    -0.82620
C78         C  0.32024603  0.16086520  0.03142312     0.97920
O79         O  0.30214636  0.17811244  0.06171520    -0.82650
O80         O  0.30501747  0.14899871  0.15615749    -0.85250
C81         C  0.30798250  0.12308866  0.18233874     1.02390
O82         O  0.28176420  0.10212848  0.18321737    -0.78070
O83         O  0.28715089  0.06613315  0.09520850    -0.78220
C84         C  0.28389806  0.05673947  0.04881703     1.02360
Cr85       Cr  0.25603732  0.12107504  0.01746659     1.93740
Cr86       Cr  0.26307547  0.16499866  0.11288420     1.93210
Cr87       Cr  0.24583906  0.09043234  0.12548380     1.39100
O88         O  0.25451127  0.12565456  0.08582991    -1.23310
C89         C  0.38469141  0.11389470  0.28549122    -0.05990
C90         C  0.41628480  0.11492966  0.25399254    -0.00060
C91         C  0.41141804  0.11284095  0.19931609    -0.08640
C92         C  0.37513755  0.11292527  0.17794407    -0.06010
C93         C  0.34397570  0.11666669  0.20921548    -0.00080
C94         C  0.34854566  0.11570320  0.26402614    -0.08550
C95         C  0.31553147  0.11764330  0.29932963     0.61830
H96         H  0.38870127  0.11307920  0.32741050     0.12530
H97         H  0.37088207  0.11138516  0.13614483     0.12540
C98         C  0.44439331  0.11154414  0.16387851     0.62070
F99         F  0.32593277  0.11743027  0.35155134    -0.23100
F100        F  0.29160286  0.09133806  0.29070770    -0.20430
F101        F  0.29717509  0.14596986  0.28881812    -0.20110
F102        F  0.46408275  0.08413826  0.17567400    -0.20160
F103        F  0.46710288  0.13884269  0.17096621    -0.20480
F104        F  0.43378639  0.11033720  0.11176547    -0.23150
C105        C  0.16579152  0.14215059  0.25871522    -0.05990
C106        C  0.16595196  0.14522469  0.20430855    -0.00060
C107        C  0.13231358  0.15104150  0.17707427    -0.08640
C108        C  0.09867446  0.14736521  0.20406592    -0.06010
C109        C  0.09836793  0.14157902  0.25812503    -0.00080
C110        C  0.13249701  0.14262548  0.28639689    -0.08550
C111        C  0.13385570  0.14760879  0.34494419     0.61830
H112        H  0.19195017  0.13979957  0.27933083     0.12530
H113        H  0.07250924  0.14923603  0.18332522     0.12540
C114        C  0.13237866  0.16357044  0.12110051     0.62070
F115        F  0.16965112  0.14749182  0.36486388    -0.23100
F116        F  0.11344807  0.12375899  0.37037987    -0.20430
F117        F  0.11936588  0.17729782  0.35567440    -0.20110
F118        F  0.15068173  0.14312122  0.08889983    -0.20160
F119        F  0.15017421  0.19374707  0.11990670    -0.20480
F120        F  0.09687587  0.16685188  0.10130070    -0.23150
C121        C  0.35264986  0.17346747  0.45136542    -0.05990
C122        C  0.35294510  0.17438091  0.00588154    -0.00060
C123        C  0.38505780  0.18571378  0.03306326    -0.08640
C124        C  0.41830273  0.18662467  0.50581442    -0.06010
C125        C  0.41788821  0.18207329  0.45177817    -0.00080
C126        C  0.38427024  0.18191591  0.42399171    -0.08550
C127        C  0.38184365  0.19213502  0.36737969     0.61830
H128        H  0.32774747  0.16604251  0.43018048     0.12530
H129        H  0.44457844  0.18910323  0.02642783     0.12540
C130        C  0.38449739  0.19594449  0.08942468     0.62070
F131        F  0.34557389  0.19319118  0.34960600    -0.23100
F132        F  0.40009865  0.17119645  0.33701168    -0.20430
F133        F  0.39814391  0.22267725  0.36164259    -0.20110
F134        F  0.37210259  0.17057818  0.12033039    -0.20160
F135        F  0.36107959  0.22153521  0.09411484    -0.20480
F136        F  0.41927147  0.20592144  0.10745181    -0.23150
C137        C  0.09392366  0.05900170  0.50692686    -0.05990
C138        C  0.09552802  0.06209863  0.45239744    -0.00060
C139        C  0.12963293  0.05825361  0.42744576    -0.08640
C140        C  0.16176566  0.06154475  0.45799819    -0.06010
C141        C  0.15997969  0.06600642  0.01194598    -0.00080
C142        C  0.12627585  0.06011000  0.03771682    -0.08550
C143        C  0.12418029  0.05677784  0.09654386     0.61830
H144        H  0.06722257  0.05949380  0.02536306     0.12530
H145        H  0.18840002  0.06292696  0.43918466     0.12540
C146        C  0.13420720  0.05141520  0.36996923     0.62070
F147        F  0.08852634  0.04917805  0.11240191    -0.23100
F148        F  0.13563855  0.08527549  0.12001902    -0.20430
F149        F  0.14668087  0.03226447  0.11368902    -0.20110
F150        F  0.15561976  0.07580181  0.34689469    -0.20160
F151        F  0.10102851  0.04835806  0.34299287    -0.20480
F152        F  0.15231372  0.02259221  0.36538752    -0.23150
C153        C  0.95067685  0.46929388  0.44492017    -0.05990
C154        C  0.44874246  0.46885722  0.99991332    -0.00060
C155        C  0.44270218  0.49855852  0.02535543    -0.08640
C156        C  0.44460835  0.02770514  0.49575822    -0.06010
C157        C  0.45320108  0.02827050  0.44227914    -0.00080
C158        C  0.95406437  0.99837563  0.41565559    -0.08550
C159        C  0.96148370  0.99677247  0.35758221     0.61830
H160        H  0.95300792  0.44647038  0.42508218     0.12530
H161        H  0.44268151  0.05068627  0.51534394     0.12540
C162        C  0.43665031  0.50021670  0.08368167     0.62070
F163        F  0.96011959  0.46518315  0.33971390    -0.23100
F164        F  0.99629772  0.00993755  0.34732733    -0.20430
F165        F  0.93511013  0.01380007  0.32998880    -0.20110
F166        F  0.46881362  0.49279186  0.11052601    -0.20160
F167        F  0.40844491  0.47854454  0.09773932    -0.20480
F168        F  0.42674573  0.03086767  0.09858248    -0.23150
C169        C  0.55013078  0.22102673  0.51210570    -0.05990
C170        C  0.05200971  0.22118101  0.45705413    -0.00060
C171        C  0.05407424  0.25169637  0.43070965    -0.08640
C172        C  0.04974765  0.28019451  0.45974521    -0.06010
C173        C  0.04224796  0.27938245  0.01363084    -0.00080
C174        C  0.54382913  0.24924157  0.04073692    -0.08550
C175        C  0.53583716  0.24609192  0.09865106     0.61830
H176        H  0.54999364  0.19785587  0.03246664     0.12530
H177        H  0.04953748  0.30342207  0.43960078     0.12540
C178        C  0.05851372  0.25453600  0.37203845     0.62070
F179        F  0.53778534  0.21436062  0.11663793    -0.23100
F180        F  0.50055458  0.25630219  0.10804085    -0.20430
F181        F  0.56138627  0.26473326  0.12684458    -0.20110
F182        F  0.02733872  0.24180940  0.34678142    -0.20160
F183        F  0.08926207  0.23809396  0.35739879    -0.20480
F184        F  0.06330437  0.28646074  0.35563654    -0.23150
C185        C  0.37191894  0.38060140  0.28952676    -0.05990
C186        C  0.33949930  0.38950634  0.26242493    -0.00060
C187        C  0.34254569  0.40060142  0.21000868    -0.08640
C188        C  0.37746908  0.40026572  0.18582700    -0.06010
C189        C  0.40880764  0.38785721  0.21147156    -0.00080
C190        C  0.40633506  0.37891062  0.26467609    -0.08550
C191        C  0.44002183  0.36743693  0.29468721     0.61830
H192        H  0.36991317  0.37435795  0.33044758     0.12530
H193        H  0.38018468  0.40822833  0.14564765     0.12540
C194        C  0.30891172  0.41142016  0.17914613     0.62070
F195        F  0.43234887  0.36082035  0.34654320    -0.23100
F196        F  0.46784131  0.39123840  0.29281042    -0.20430
F197        F  0.45238433  0.33942714  0.27263043    -0.20110
F198        F  0.29482217  0.43847698  0.20197732    -0.20160
F199        F  0.28213122  0.38668081  0.17841345    -0.20480
F200        F  0.31740159  0.41944147  0.12801883    -0.23150
C201        C  0.15514258  0.36590093  0.20098944    -0.05990
C202        C  0.15675558  0.36623045  0.25546328    -0.00060
C203        C  0.12315466  0.36155723  0.28308392    -0.08640
C204        C  0.08908825  0.36385580  0.25587149    -0.06010
C205        C  0.08751846  0.36665192  0.20151326    -0.00080
C206        C  0.12102014  0.36440146  0.17351619    -0.08550
C207        C  0.12253283  0.35627886  0.11620187     0.61830
H208        H  0.18076997  0.36634702  0.17969071     0.12530
H209        H  0.06331271  0.36258503  0.27674232     0.12540
C210        C  0.12291847  0.35029490  0.33950845     0.62070
F211        F  0.14792995  0.37663830  0.09125016    -0.23100
F212        F  0.08895442  0.35838920  0.09046046    -0.20430
F213        F  0.13387173  0.32476997  0.11270531    -0.20110
F214        F  0.14550133  0.37007603  0.36958339    -0.20160
F215        F  0.13534080  0.31900727  0.34240600    -0.20480
F216        F  0.08786802  0.35026905  0.36027764    -0.23150
C217        C  0.39681117  0.30700614  0.46156721    -0.05990
C218        C  0.39761248  0.31499763  0.01453527    -0.00060
C219        C  0.36465650  0.31402767  0.04308065    -0.08640
C220        C  0.33118619  0.31208789  0.51521900    -0.06010
C221        C  0.33067027  0.31143955  0.46057965    -0.00080
C222        C  0.36313099  0.30413984  0.43397251    -0.08550
C223        C  0.36239855  0.29450086  0.37721171     0.61830
H224        H  0.42269928  0.30578475  0.44120938     0.12530
H225        H  0.30549640  0.31564750  0.03517570     0.12540
C226        C  0.36478259  0.31951149  0.10121224     0.62070
F227        F  0.39726638  0.28752046  0.36007941    -0.23100
F228        F  0.34931829  0.31914473  0.34625975    -0.20430
F229        F  0.33951083  0.26725368  0.37103382    -0.20110
F230        F  0.37856301  0.35040056  0.11083477    -0.20160
F231        F  0.38675348  0.29711892  0.12624528    -0.20480
F232        F  0.32965326  0.31653247  0.12162952    -0.23150
C233        C  0.08649488  0.43398887  0.44807476    -0.05990
C234        C  0.08684990  0.43258858  0.00252899    -0.00060
C235        C  0.11988895  0.44011518  0.03035920    -0.08640
C236        C  0.15311565  0.43822550  0.50354484    -0.06010
C237        C  0.15285943  0.43313493  0.44956395    -0.00080
C238        C  0.11945140  0.43628948  0.42067525    -0.08550
C239        C  0.11646060  0.44212641  0.36237591     0.61830
H240        H  0.06037571  0.43161995  0.42684829     0.12530
H241        H  0.17919216  0.43858059  0.02484459     0.12540
C242        C  0.11998656  0.44999345  0.08698865     0.62070
F243        F  0.09921636  0.47116035  0.35335846    -0.23100
F244        F  0.09500248  0.41771676  0.33966197    -0.20430
F245        F  0.15027712  0.44409392  0.33853437    -0.20110
F246        F  0.10506486  0.42557499  0.11762573    -0.20160
F247        F  0.09911626  0.47723268  0.09176489    -0.20480
F248        F  0.15535108  0.45719430  0.10565417    -0.23150
C249        C  0.26771004  0.46933115  0.51700011    -0.05990
C250        C  0.28938477  0.46606899  0.47226560    -0.00060
C251        C  0.31579596  0.49109557  0.46054100    -0.08640
C252        C  0.31645653  0.01973626  0.99083119    -0.06010
C253        C  0.29245224  0.02345633  0.03308124    -0.00080
C254        C  0.26895802  0.99692035  0.54795075    -0.08550
C255        C  0.23980854  0.99769192  0.58997931     0.61830
H256        H  0.24727486  0.45060155  0.52691649     0.12530
H257        H  0.33415494  0.04027815  0.97970105     0.12540
C258        C  0.34295314  0.48771555  0.41688546     0.62070
F259        F  0.23773279  0.96807211  0.61606553    -0.23100
F260        F  0.20591073  0.00307284  0.56633228    -0.20430
F261        F  0.24701194  0.02093155  0.12726911    -0.20110
F262        F  0.32452840  0.48767064  0.36923281    -0.20160
F263        F  0.36129224  0.45897878  0.42342850    -0.20480
F264        F  0.36904047  0.51302004  0.41649518    -0.23150
C265        C  0.21513651  0.25086927  0.40923857    -0.05990
C266        C  0.19536423  0.27432533  0.43412423    -0.00060
C267        C  0.17911447  0.26658203  0.48265584    -0.08640
C268        C  0.18758863  0.23704791  0.00818125    -0.06010
C269        C  0.21304332  0.21585659  0.98727427    -0.00080
C270        C  0.22696719  0.22316031  0.43613684    -0.08550
C271        C  0.25921865  0.20596517  0.41315089     0.61830
H272        H  0.22660926  0.25719605  0.37160829     0.12530
H273        H  0.17638282  0.23160537  0.04620779     0.12540
C274        C  0.15390578  0.29003929  0.50783291     0.62070
F275        F  0.27138496  0.22004215  0.36691265    -0.23100
F276        F  0.24982699  0.17387702  0.40273272    -0.20430
F277        F  0.28813470  0.20834825  0.94861625    -0.20110
F278        F  0.13006700  0.30270633  0.47067313    -0.20160
F279        F  0.17473119  0.31510197  0.53003386    -0.20480
F280        F  0.13291585  0.27472818  0.04609420    -0.23150
O281        O  0.19103471  0.38836107  0.94562686    -0.85560
O282        O  0.21989114  0.32636067  0.95128713    -0.82610
C283        C  0.20492825  0.30807283  0.91777551     0.97900
O284        O  0.20635069  0.31586294  0.87017225    -0.82640
O285        O  0.21825312  0.35185633  0.78172220    -0.85280
C286        C  0.19312993  0.37241166  0.78269883     1.02430
O287        O  0.19844192  0.39855736  0.80711298    -0.78050
O288        O  0.20595097  0.43138355  0.89760974    -0.78230
C289        C  0.18458605  0.41670446  0.92899998     1.02380
O290        O  0.26193513  0.41444614  0.96340314    -0.85560
O291        O  0.29090277  0.35471931  0.95461328    -0.82620
C292        C  0.30032367  0.32844080  0.93480877     0.97920
O293        O  0.28380808  0.31697707  0.89494958    -0.82650
O294        O  0.29716731  0.35675267  0.81108804    -0.85250
C295        C  0.30334418  0.38397699  0.78958902     1.02390
O296        O  0.27977774  0.40596328  0.79217208    -0.78070
O297        O  0.28406773  0.43489821  0.89124063    -0.78220
C298        C  0.27998091  0.43662302  0.94014265     1.02360
Cr299      Cr  0.24115081  0.37124825  0.94777773     1.93740
Cr300      Cr  0.25097282  0.33878216  0.84205025     1.93210
Cr301      Cr  0.24259076  0.41399196  0.84852732     1.39100
O302        O  0.24526397  0.37473471  0.87928308    -1.23310
O303        O  0.05814746  0.10721800  0.94639617    -0.85560
O304        O  0.02705754  0.16759790  0.95765497    -0.82610
C305        C  0.04267771  0.18950540  0.93046850     0.97900
O306        O  0.54509396  0.18545931  0.88187278    -0.82640
O307        O  0.03806539  0.15512633  0.78572285    -0.85280
C308        C  0.06268959  0.13409727  0.78451246     1.02430
O309        O  0.05755312  0.10658957  0.80592596    -0.78050
O310        O  0.04598261  0.06753599  0.89155446    -0.78230
C311        C  0.06547561  0.07994869  0.92785794     1.02380
O312        O  0.48722408  0.07758046  0.95103297    -0.85560
O313        O  0.45719417  0.13860817  0.94666966    -0.82620
C314        C  0.44909150  0.16639969  0.92946478     0.97920
O315        O  0.46742061  0.18074539  0.89416354    -0.82650
O316        O  0.45837003  0.14712087  0.80460312    -0.85250
C317        C  0.45310476  0.12109276  0.78008311     1.02390
O318        O  0.47799765  0.10033531  0.77981241    -0.78070
O319        O  0.96806403  0.06633402  0.87212174    -0.78220
C320        C  0.46901729  0.05934252  0.92021638     1.02360
Cr321      Cr  0.00757801  0.12287546  0.94457102     1.93740
Cr322      Cr  0.50280574  0.16358619  0.84338074     1.93210
Cr323      Cr  0.01204066  0.08858421  0.83961905     1.39100
O324        O  0.00751635  0.12512135  0.87561725    -1.23310
O325        O  0.04475992  0.38875766  0.51120018    -0.85560
O326        O  0.00931249  0.32788500  0.50652892    -0.82610
C327        C  0.02680528  0.30927895  0.53653746     0.97900
O328        O  0.52859682  0.31534523  0.58459919    -0.82640
O329        O  0.02627522  0.34903924  0.67573896    -0.85280
C330        C  0.05098085  0.37145545  0.67542154     1.02430
O331        O  0.04541560  0.39807173  0.65243382    -0.78050
O332        O  0.03722694  0.43103046  0.56140977    -0.78230
C333        C  0.05495781  0.41660235  0.52712422     1.02380
O334        O  0.47670554  0.41800428  0.50064193    -0.85560
O335        O  0.44146252  0.35777734  0.51337467    -0.82620
C336        C  0.43118271  0.33131107  0.53477897     0.97920
O337        O  0.44953285  0.31859077  0.57176028    -0.82650
O338        O  0.44611255  0.35477966  0.65995749    -0.85250
C339        C  0.44247964  0.38217728  0.68031826     1.02390
O340        O  0.46622022  0.40490691  0.67312367    -0.78070
O341        O  0.95893993  0.43400932  0.57616376    -0.78220
C342        C  0.46057512  0.43842041  0.52744626     1.02360
Cr343      Cr  0.49309889  0.37321698  0.51416117     1.93740
Cr344      Cr  0.48814323  0.33789118  0.62035823     1.93210
Cr345      Cr  0.00117368  0.41337894  0.61395372     1.39060
O346        O  0.49395124  0.37482109  0.58330486    -1.23310
O347        O  0.20356364  0.10885571  0.51455480    -0.85560
O348        O  0.24344767  0.16603064  0.49799067    -0.82610
C349        C  0.22665331  0.18794801  0.52013173     0.97900
O350        O  0.22372255  0.18657248  0.56927510    -0.82640
O351        O  0.22525840  0.16001272  0.66949445    -0.85280
C352        C  0.20021667  0.13824859  0.67622123     1.02430
O353        O  0.20335361  0.11003650  0.65894660    -0.78050
O354        O  0.20808805  0.07086306  0.57558837    -0.78230
C355        C  0.19164999  0.08301384  0.53634461     1.02380
O356        O  0.26843370  0.07449815  0.51551429    -0.85560
O357        O  0.30874590  0.13290728  0.51811822    -0.82620
C358        C  0.32026385  0.16087521  0.53144799     0.97920
O359        O  0.30216101  0.17812084  0.56173857    -0.82650
O360        O  0.30502692  0.14899670  0.65617212    -0.85250
C361        C  0.30799234  0.12308180  0.68234113     1.02390
O362        O  0.28177327  0.10212223  0.68321459    -0.78070
O363        O  0.28715391  0.06613518  0.59520005    -0.78220
C364        C  0.28390115  0.05674670  0.54880622     1.02360
Cr365      Cr  0.25605573  0.12108995  0.51747263     1.93740
Cr366      Cr  0.26308726  0.16500325  0.61290113     1.93210
Cr367      Cr  0.24584541  0.09043634  0.62547999     1.39100
O368        O  0.25452275  0.12566216  0.58583678    -1.23310
C369        C  0.38470679  0.11385363  0.78547583    -0.05990
C370        C  0.41629845  0.11491040  0.75397379    -0.00060
C371        C  0.41143050  0.11284626  0.69929528    -0.08640
C372        C  0.37514907  0.11293190  0.67792758    -0.06010
C373        C  0.34398749  0.11665361  0.70920743    -0.00080
C374        C  0.34855958  0.11566514  0.76401712    -0.08550
C375        C  0.31554644  0.11758317  0.79932760     0.61830
H376        H  0.38871917  0.11302275  0.82739428     0.12530
H377        H  0.37089239  0.11140920  0.63612671     0.12540
C378        C  0.44440558  0.11157520  0.66385281     0.62070
F379        F  0.32595079  0.11735288  0.85154819    -0.23100
F380        F  0.29162569  0.09127550  0.79068284    -0.20430
F381        F  0.29718014  0.14590852  0.78884696    -0.20110
F382        F  0.46410833  0.08417258  0.67561928    -0.20160
F383        F  0.46710320  0.13887857  0.67096608    -0.20480
F384        F  0.43379740  0.11038492  0.61173915    -0.23150
C385        C  0.16580589  0.14212830  0.75873695    -0.05990
C386        C  0.16596613  0.14522130  0.70433236    -0.00060
C387        C  0.13232829  0.15104942  0.67710452    -0.08640
C388        C  0.09868919  0.14736655  0.70409503    -0.06010
C389        C  0.09838252  0.14156169  0.75814974    -0.00080
C390        C  0.13251186  0.14259666  0.78642106    -0.08550
C391        C  0.13387156  0.14756314  0.84497259     0.61830
H392        H  0.19196441  0.13976826  0.77934945     0.12530
H393        H  0.07252410  0.14924672  0.68335701     0.12540
C394        C  0.13239442  0.16359514  0.62113991     0.62070
F395        F  0.16966704  0.14743770  0.86489077    -0.23100
F396        F  0.11346151  0.12370816  0.87039216    -0.20430
F397        F  0.11938481  0.17725001  0.85572565    -0.20110
F398        F  0.15069694  0.14315524  0.58892285    -0.20160
F399        F  0.15019126  0.19377164  0.61996896    -0.20480
F400        F  0.09689199  0.16688298  0.60134270    -0.23150
C401        C  0.35263422  0.17345007  0.95133929    -0.05990
C402        C  0.35296154  0.17439448  0.50590788    -0.00060
C403        C  0.38507231  0.18573134  0.53308996    -0.08640
C404        C  0.41828830  0.18660262  0.00578831    -0.06010
C405        C  0.41787408  0.18204737  0.95175322    -0.00080
C406        C  0.38425666  0.18189086  0.92396495    -0.08550
C407        C  0.38183304  0.19209888  0.86734776     0.61830
H408        H  0.32773141  0.16602559  0.93015479     0.12530
H409        H  0.44459283  0.18912727  0.52645351     0.12540
C410        C  0.38450913  0.19596607  0.58944947     0.62070
F411        F  0.34556414  0.19315314  0.84956957    -0.23100
F412        F  0.40008818  0.17115229  0.83699431    -0.20430
F413        F  0.39813493  0.22263956  0.86159547    -0.20110
F414        F  0.37211367  0.17060247  0.62036042    -0.20160
F415        F  0.36109010  0.22155657  0.59413188    -0.20480
F416        F  0.41928218  0.20594550  0.60747722    -0.23150
C417        C  0.09391687  0.05897351  0.00695002    -0.05990
C418        C  0.09552050  0.06206599  0.95241973    -0.00060
C419        C  0.12962497  0.05821474  0.92746889    -0.08640
C420        C  0.16175826  0.06150839  0.95801985    -0.06010
C421        C  0.15998632  0.06603682  0.51192585    -0.00080
C422        C  0.12628200  0.06013796  0.53769489    -0.08550
C423        C  0.12418436  0.05680562  0.59652181     0.61830
H424        H  0.06722884  0.05951930  0.52533900     0.12530
H425        H  0.18839248  0.06288795  0.93920576     0.12540
C426        C  0.13419904  0.05136556  0.86999576     0.62070
F427        F  0.08853020  0.04920413  0.61237736    -0.23100
F428        F  0.13563965  0.08530405  0.61999683    -0.20430
F429        F  0.14668589  0.03229371  0.61366977    -0.20110
F430        F  0.15561451  0.07574604  0.84691011    -0.20160
F431        F  0.10102062  0.04830604  0.84301950    -0.20480
F432        F  0.15230279  0.02254010  0.86542866    -0.23150
C433        C  0.95068445  0.46926007  0.94488386    -0.05990
C434        C  0.44875532  0.46888725  0.49994702    -0.00060
C435        C  0.44274185  0.49859102  0.52539699    -0.08640
C436        C  0.44457320  0.02767323  0.99571063    -0.06010
C437        C  0.45318745  0.02824005  0.94223901    -0.00080
C438        C  0.95407639  0.99834236  0.91563072    -0.08550
C439        C  0.96152268  0.99674093  0.85756464     0.61830
H440        H  0.95303441  0.44643748  0.92504974     0.12530
H441        H  0.44263043  0.05065397  0.01529282     0.12540
C442        C  0.43672644  0.50025209  0.58373168     0.62070
F443        F  0.96017378  0.46515051  0.83968661    -0.23100
F444        F  0.99633700  0.00991592  0.84734014    -0.20430
F445        F  0.93515449  0.01376055  0.82994697    -0.20110
F446        F  0.46889910  0.49280784  0.61053731    -0.20160
F447        F  0.40851382  0.47859591  0.59782104    -0.20480
F448        F  0.42684432  0.03090657  0.59865228    -0.23150
C449        C  0.55010079  0.22099504  0.01212931    -0.05990
C450        C  0.05200011  0.22114625  0.95709719    -0.00060
C451        C  0.05408745  0.25166201  0.93075608    -0.08640
C452        C  0.04975875  0.28016123  0.95978852    -0.06010
C453        C  0.04225805  0.27941456  0.51359416    -0.00080
C454        C  0.54385749  0.24927228  0.54071473    -0.08550
C455        C  0.53587953  0.24612191  0.59863303     0.61830
H456        H  0.55003590  0.19788819  0.53244444     0.12530
H457        H  0.04956455  0.30338965  0.93964515     0.12540
C458        C  0.05855547  0.25450165  0.87209009     0.62070
F459        F  0.53784164  0.21439182  0.61662060    -0.23100
F460        F  0.50059557  0.25632331  0.60803829    -0.20430
F461        F  0.56142915  0.26476990  0.62681454    -0.20110
F462        F  0.02738710  0.24178592  0.84680330    -0.20160
F463        F  0.08930397  0.23804993  0.85747888    -0.20480
F464        F  0.06336693  0.28642553  0.85569480    -0.23150
C465        C  0.37192613  0.38058898  0.78953104    -0.05990
C466        C  0.33950700  0.38950028  0.76243379    -0.00060
C467        C  0.34255375  0.40060281  0.71002130    -0.08640
C468        C  0.37747706  0.40027001  0.68583897    -0.06010
C469        C  0.40881541  0.38785761  0.71147843    -0.00080
C470        C  0.40634242  0.37890231  0.76467940    -0.08550
C471        C  0.44002928  0.36742461  0.79468599     0.61830
H472        H  0.36992012  0.37433826  0.83044907     0.12530
H473        H  0.38019294  0.40823881  0.64566269     0.12540
C474        C  0.30892009  0.41142593  0.67916220     0.62070
F475        F  0.43235616  0.36079988  0.84653952    -0.23100
F476        F  0.46784830  0.39122684  0.79281870    -0.20430
F477        F  0.45239254  0.33941863  0.77261793    -0.20110
F478        F  0.29483233  0.43848133  0.70199998    -0.20160
F479        F  0.28213819  0.38668778  0.67842416    -0.20480
F480        F  0.31740982  0.41945147  0.62803643    -0.23150
C481        C  0.15515110  0.36590978  0.70098018    -0.05990
C482        C  0.15676461  0.36622787  0.75545420    -0.00060
C483        C  0.12316440  0.36154586  0.78307359    -0.08640
C484        C  0.08909725  0.36384655  0.75586367    -0.06010
C485        C  0.08752662  0.36665463  0.70150708    -0.00080
C486        C  0.12102831  0.36441289  0.67350760    -0.08550
C487        C  0.12254043  0.35629767  0.61619078     0.61830
H488        H  0.18077833  0.36636226  0.67968073     0.12530
H489        H  0.06332198  0.36256900  0.77673487     0.12540
C490        C  0.12293008  0.35027360  0.83949291     0.62070
F491        F  0.14794040  0.37665758  0.59124580    -0.23100
F492        F  0.08896269  0.35841431  0.59044954    -0.20430
F493        F  0.13387509  0.32478820  0.61268519    -0.20110
F494        F  0.14551328  0.37004993  0.86957573    -0.20160
F495        F  0.13535315  0.31898588  0.84237414    -0.20480
F496        F  0.08788018  0.35024319  0.86026451    -0.23150
C497        C  0.39679846  0.30697932  0.96158657    -0.05990
C498        C  0.39762411  0.31502181  0.51451715    -0.00060
C499        C  0.36466861  0.31404445  0.54306391    -0.08640
C500        C  0.33117447  0.31207975  0.01523397    -0.06010
C501        C  0.33065990  0.31143016  0.96059471    -0.00080
C502        C  0.36311853  0.30412029  0.93399012    -0.08550
C503        C  0.36238545  0.29447925  0.87723008     0.61830
H504        H  0.42268652  0.30575183  0.94123021     0.12530
H505        H  0.30550721  0.31564909  0.53516212     0.12540
C506        C  0.36479433  0.31952921  0.60119542     0.62070
F507        F  0.39725131  0.28748809  0.86010271    -0.23100
F508        F  0.34931615  0.31912633  0.84627434    -0.20430
F509        F  0.33948898  0.26723753  0.87105205    -0.20110
F510        F  0.37856944  0.35042033  0.61081626    -0.20160
F511        F  0.38676957  0.29714019  0.62622903    -0.20480
F512        F  0.32966564  0.31654574  0.62161380    -0.23150
C513        C  0.08648629  0.43395678  0.94805805    -0.05990
C514        C  0.08685737  0.43261605  0.50254553    -0.00060
C515        C  0.11989913  0.44012800  0.53037764    -0.08640
C516        C  0.15310686  0.43822476  0.00352564    -0.06010
C517        C  0.15285202  0.43312895  0.94954630    -0.00080
C518        C  0.11944198  0.43626827  0.92065816    -0.08550
C519        C  0.11644980  0.44210228  0.86235873     0.61830
H520        H  0.06036790  0.43157803  0.92683231     0.12530
H521        H  0.17919988  0.43856917  0.52486570     0.12540
C522        C  0.12000053  0.45000434  0.58700818     0.62070
F523        F  0.09919481  0.47113067  0.85333769    -0.23100
F524        F  0.09500054  0.41768637  0.83964708    -0.20430
F525        F  0.15026694  0.44407810  0.83851906    -0.20110
F526        F  0.10506640  0.42559051  0.61764239    -0.20160
F527        F  0.09914386  0.47725164  0.59178621    -0.20480
F528        F  0.15536759  0.45719096  0.60567632    -0.23150
C529        C  0.26774818  0.46931044  0.01704593    -0.05990
C530        C  0.28939573  0.46605873  0.97228083    -0.00060
C531        C  0.31578462  0.49109792  0.96052366    -0.08640
C532        C  0.31646599  0.01973224  0.49084339    -0.06010
C533        C  0.29244067  0.02346149  0.53306689    -0.00080
C534        C  0.26900022  0.99690254  0.04800319    -0.08550
C535        C  0.23986009  0.99767141  0.09004611     0.61830
H536        H  0.24733120  0.45057116  0.02698868     0.12530
H537        H  0.33418674  0.04026520  0.47973951     0.12540
C538        C  0.34291428  0.48773440  0.91682859     0.62070
F539        F  0.23778333  0.96804911  0.11612504    -0.23100
F540        F  0.20595840  0.00305993  0.06641654    -0.20430
F541        F  0.24694709  0.02095721  0.62719781    -0.20110
F542        F  0.32445739  0.48769565  0.86920003    -0.20160
F543        F  0.36126692  0.45900147  0.92332882    -0.20480
F544        F  0.36899425  0.51304497  0.91641825    -0.23150
C545        C  0.21512722  0.25086158  0.90922656    -0.05990
C546        C  0.19535800  0.27431910  0.93411432    -0.00060
C547        C  0.17910579  0.26657531  0.98264410    -0.08640
C548        C  0.18760163  0.23705655  0.50819579    -0.06010
C549        C  0.21306035  0.21586827  0.48729112    -0.00080
C550        C  0.22695132  0.22314871  0.93612094    -0.08550
C551        C  0.25919856  0.20594872  0.91313343     0.61830
H552        H  0.22660237  0.25718887  0.87159799     0.12530
H553        H  0.17639594  0.23161316  0.54622231     0.12540
C554        C  0.15390118  0.29003467  0.00782488     0.62070
F555        F  0.27136716  0.22002447  0.86689547    -0.23100
F556        F  0.24980025  0.17386201  0.90271456    -0.20430
F557        F  0.28815427  0.20836985  0.44863412    -0.20110
F558        F  0.13007203  0.30271497  0.97066462    -0.20160
F559        F  0.17473167  0.31508791  0.03004403    -0.20480
F560        F  0.13293116  0.27473475  0.54611561    -0.23150
O561        O  0.19103775  0.88836475  0.44563471    -0.85560
O562        O  0.21989579  0.82636468  0.45129100    -0.82610
C563        C  0.20492875  0.80807631  0.41778366     0.97900
O564        O  0.20634615  0.81586522  0.37017946    -0.82640
O565        O  0.21824225  0.85185588  0.28172427    -0.85280
C566        C  0.19311854  0.87241061  0.28270342     1.02430
O567        O  0.19843147  0.89855671  0.30711603    -0.78050
O568        O  0.20594833  0.93138549  0.39761043    -0.78230
C569        C  0.18458732  0.91670781  0.42900734     1.02380
O570        O  0.26194015  0.91444929  0.46339424    -0.85560
O571        O  0.29090714  0.85472496  0.45460159    -0.82620
C572        C  0.30032635  0.82844569  0.43479873     0.97920
O573        O  0.28380677  0.81697970  0.39494415    -0.82650
O574        O  0.29715801  0.85675424  0.31107837    -0.85250
C575        C  0.30333329  0.88397845  0.28957798     1.02390
O576        O  0.27976599  0.90596404  0.29216099    -0.78070
O577        O  0.28406256  0.93490308  0.39122590    -0.78220
C578        C  0.27997843  0.93662835  0.44012826     1.02360
Cr579      Cr  0.24115446  0.87125207  0.44777552     1.93740
Cr580      Cr  0.25096647  0.83878355  0.34204850     1.93210
Cr581      Cr  0.24258338  0.91399353  0.34852172     1.39100
O582        O  0.24526053  0.87473714  0.37927984    -1.23310
O583        O  0.05816438  0.60725384  0.44637486    -0.85560
O584        O  0.02707462  0.66763367  0.45763522    -0.82610
C585        C  0.04268718  0.68953977  0.43043783     0.97900
O586        O  0.54509403  0.68548669  0.38184907    -0.82640
O587        O  0.03805450  0.65514612  0.28570409    -0.85280
C588        C  0.06267855  0.63411672  0.28449331     1.02430
O589        O  0.05754416  0.60661053  0.30591233    -0.78050
O590        O  0.04598659  0.56756463  0.39155110    -0.78230
C591        C  0.06548728  0.57998174  0.42784276     1.02380
O592        O  0.48724317  0.57761007  0.45104644    -0.85560
O593        O  0.45721162  0.63863650  0.44668767    -0.82620
C594        C  0.44910360  0.66642583  0.42947921     0.97920
O595        O  0.46742354  0.68076876  0.39416556    -0.82650
O596        O  0.45836077  0.64713877  0.30461054    -0.85250
C597        C  0.45309256  0.62110964  0.28009411     1.02390
O598        O  0.47798475  0.60035159  0.27982305    -0.78070
O599        O  0.96806564  0.56636269  0.37214440    -0.78220
C600        C  0.46902903  0.55937036  0.42024071     1.02360
Cr601      Cr  0.00759458  0.62290974  0.44456727     1.93740
Cr602      Cr  0.50280165  0.66360804  0.34337403     1.93210
Cr603      Cr  0.01203700  0.58860860  0.33962169     1.39100
O604        O  0.00751875  0.62514932  0.37561279    -1.23310
O605        O  0.04475243  0.88872825  0.01119859    -0.85560
O606        O  0.00930517  0.82785433  0.00654507    -0.82610
C607        C  0.02679395  0.80924995  0.03656122     0.97900
O608        O  0.52858273  0.81532332  0.08461414    -0.82640
O609        O  0.02626458  0.84903017  0.17574685    -0.85280
C610        C  0.05096995  0.87144666  0.17542317     1.02430
O611        O  0.04540499  0.89806030  0.15242673    -0.78050
O612        O  0.03721606  0.93100759  0.06139227    -0.78230
C613        C  0.05494871  0.91657547  0.02711348     1.02380
O614        O  0.47669390  0.91797503  0.00062301    -0.85560
O615        O  0.44145205  0.85775007  0.01337511    -0.82620
C616        C  0.43117014  0.83128750  0.03478927     0.97920
O617        O  0.44951903  0.81857127  0.07177555    -0.82650
O618        O  0.44610184  0.85477120  0.15996068    -0.85250
C619        C  0.44246855  0.88217171  0.18031124     1.02390
O620        O  0.46620855  0.90490059  0.17310819    -0.78070
O621        O  0.95892895  0.93398790  0.07614169    -0.78220
C622        C  0.46056177  0.93839425  0.02741920     1.02360
Cr623      Cr  0.49308824  0.87318954  0.01415727     1.93740
Cr624      Cr  0.48813111  0.83787667  0.12036580     1.93210
Cr625      Cr  0.00116301  0.91336257  0.11394035     1.39060
O626        O  0.49393989  0.87480211  0.08330020    -1.23310
O627        O  0.20354846  0.60883524  0.01455702    -0.85560
O628        O  0.24342278  0.66601460  0.99797067    -0.82610
C629        C  0.22663480  0.68793610  0.02011186     0.97900
O630        O  0.22370909  0.68656452  0.06925581    -0.82640
O631        O  0.22524830  0.66001084  0.16947662    -0.85280
C632        C  0.20020514  0.63824779  0.17620220     1.02430
O633        O  0.20334371  0.61003388  0.15893516    -0.78050
O634        O  0.20808624  0.57084658  0.07559425    -0.78230
C635        C  0.19164243  0.58299218  0.03635130     1.02380
O636        O  0.26842622  0.57448624  0.01551666    -0.85560
O637        O  0.30872786  0.63289956  0.01809382    -0.82620
C638        C  0.32024759  0.66086715  0.03142226     0.97920
O639        O  0.30214703  0.67811395  0.06171387    -0.82650
O640        O  0.30501739  0.64899849  0.15615476    -0.85250
C641        C  0.30798225  0.62308801  0.18233493     1.02390
O642        O  0.28176373  0.60212809  0.18321311    -0.78070
O643        O  0.28715151  0.56613375  0.09520366    -0.78220
C644        C  0.28389937  0.55674053  0.04881189     1.02360
Cr645      Cr  0.25603927  0.62107661  0.01746237     1.93740
Cr646      Cr  0.26307575  0.66499907  0.11288154     1.93210
Cr647      Cr  0.24583933  0.59043266  0.12547857     1.39100
O648        O  0.25451206  0.62565530  0.08582582    -1.23310
C649        C  0.38469160  0.61389083  0.28548563    -0.05990
C650        C  0.41628476  0.61492779  0.25398654    -0.00060
C651        C  0.41141781  0.61284068  0.19930998    -0.08640
C652        C  0.37513720  0.61292490  0.17793849    -0.06010
C653        C  0.34397552  0.61666521  0.20921069    -0.00080
C654        C  0.34854573  0.61569985  0.26402124    -0.08550
C655        C  0.31553175  0.61763871  0.29932539     0.61830
H656        H  0.38870172  0.61307372  0.32740480     0.12530
H657        H  0.37088153  0.61138606  0.13613914     0.12540
C658        C  0.44439297  0.61154568  0.16387188     0.62070
F659        F  0.32593341  0.61742451  0.35154698    -0.23100
F660        F  0.29160339  0.59133349  0.29070209    -0.20430
F661        F  0.29717495  0.64596534  0.28881603    -0.20110
F662        F  0.46408359  0.58414021  0.17566563    -0.20160
F663        F  0.46710152  0.63884474  0.17096083    -0.20480
F664        F  0.43378580  0.61033954  0.11175888    -0.23150
C665        C  0.16579327  0.64215004  0.25871262    -0.05990
C666        C  0.16595254  0.64522388  0.20430589    -0.00060
C667        C  0.13231364  0.65104063  0.17707293    -0.08640
C668        C  0.09867510  0.64736441  0.20406603    -0.06010
C669        C  0.09836974  0.64157852  0.25812527    -0.00080
C670        C  0.13249939  0.64262508  0.28639569    -0.08550
C671        C  0.13385926  0.64760858  0.34494290     0.61830
H672        H  0.19195236  0.63979916  0.27932718     0.12530
H673        H  0.07250946  0.64923530  0.18332646     0.12540
C674        C  0.13237763  0.66356993  0.12109933     0.62070
F675        F  0.16965508  0.64749197  0.36486110    -0.23100
F676        F  0.11345243  0.62375865  0.37037948    -0.20430
F677        F  0.11936931  0.67729751  0.35567359    -0.20110
F678        F  0.15068088  0.64312144  0.08889764    -0.20160
F679        F  0.15017231  0.69374695  0.11990556    -0.20480
F680        F  0.09687446  0.66685066  0.10130058    -0.23150
C681        C  0.35264958  0.67346713  0.45136490    -0.05990
C682        C  0.35294779  0.67438315  0.00588379    -0.00060
C683        C  0.38506018  0.68571374  0.03306859    -0.08640
C684        C  0.41830407  0.68662426  0.50580993    -0.06010
C685        C  0.41788791  0.68207257  0.45177373    -0.00080
C686        C  0.38426922  0.68191485  0.42398910    -0.08550
C687        C  0.38184135  0.69213102  0.36737587     0.61830
H688        H  0.32774694  0.66604111  0.43018147     0.12530
H689        H  0.44458133  0.68909927  0.02643834     0.12540
C690        C  0.38449796  0.69594517  0.08942952     0.62070
F691        F  0.34557119  0.69318670  0.34960369    -0.23100
F692        F  0.40009532  0.67119046  0.33701017    -0.20430
F693        F  0.39814194  0.72267275  0.36163371    -0.20110
F694        F  0.37209969  0.67058010  0.12033494    -0.20160
F695        F  0.36108197  0.72153746  0.09411651    -0.20480
F696        F  0.41927195  0.70592019  0.10745960    -0.23150
C697        C  0.09392803  0.55900258  0.50693104    -0.05990
C698        C  0.09553309  0.56210000  0.45240168    -0.00060
C699        C  0.12963796  0.55825351  0.42745048    -0.08640
C700        C  0.16177054  0.56154221  0.45800379    -0.06010
C701        C  0.15998102  0.56600813  0.01193910    -0.00080
C702        C  0.12627759  0.56011045  0.03771059    -0.08550
C703        C  0.12418251  0.55677764  0.09653763     0.61830
H704        H  0.06722417  0.55949292  0.02535803     0.12530
H705        H  0.18840515  0.56292349  0.43919087     0.12540
C706        C  0.13421262  0.55141637  0.36997360     0.62070
F707        F  0.08852890  0.54917667  0.11239598    -0.23100
F708        F  0.13563981  0.58527533  0.12001337    -0.20430
F709        F  0.14668409  0.53226480  0.11368199    -0.20110
F710        F  0.15562762  0.57580231  0.34690163    -0.20160
F711        F  0.10103427  0.54836212  0.34299579    -0.20480
F712        F  0.15231682  0.52259231  0.36539044    -0.23150
C713        C  0.95067097  0.96929358  0.44491179    -0.05990
C714        C  0.44873950  0.96885696  0.99990830    -0.00060
C715        C  0.44269832  0.99855829  0.02534988    -0.08640
C716        C  0.44461322  0.52770545  0.49575679    -0.06010
C717        C  0.45320279  0.52827010  0.44227661    -0.00080
C718        C  0.95407078  0.49837604  0.41566439    -0.08550
C719        C  0.96148875  0.49677300  0.35759061     0.61830
H720        H  0.95300360  0.94647004  0.42507439     0.12530
H721        H  0.44268769  0.55068687  0.51534204     0.12540
C722        C  0.43664597  0.00021665  0.08367599     0.62070
F723        F  0.96011490  0.96518257  0.33970570    -0.23100
F724        F  0.99630250  0.50993815  0.34733420    -0.20430
F725        F  0.93511452  0.51380061  0.32999854    -0.20110
F726        F  0.46880921  0.99279232  0.11052091    -0.20160
F727        F  0.40844078  0.97854422  0.09773346    -0.20480
F728        F  0.42675066  0.53086778  0.09858865    -0.23150
C729        C  0.55012859  0.72102718  0.51210032    -0.05990
C730        C  0.05201251  0.72118305  0.45705629    -0.00060
C731        C  0.05407622  0.75169797  0.43071041    -0.08640
C732        C  0.04974828  0.78019652  0.45974447    -0.06010
C733        C  0.04224598  0.77938241  0.01362799    -0.00080
C734        C  0.54382935  0.74924274  0.04073941    -0.08550
C735        C  0.53583496  0.74609364  0.09865296     0.61830
H736        H  0.54999589  0.69785716  0.03247193     0.12530
H737        H  0.04953751  0.80342371  0.43959898     0.12540
C738        C  0.05851629  0.75453651  0.37203923     0.62070
F739        F  0.53778296  0.71436256  0.11664102    -0.23100
F740        F  0.50055173  0.75630355  0.10803937    -0.20430
F741        F  0.56138255  0.76473560  0.12684806    -0.20110
F742        F  0.02734200  0.74180862  0.34678210    -0.20160
F743        F  0.08926546  0.73809500  0.35740126    -0.20480
F744        F  0.06330591  0.78646099  0.35563575    -0.23150
C745        C  0.37191532  0.88059539  0.28952333    -0.05990
C746        C  0.33949598  0.88950259  0.26242295    -0.00060
C747        C  0.34254284  0.90060107  0.21000844    -0.08640
C748        C  0.37746634  0.90026649  0.18582684    -0.06010
C749        C  0.40880456  0.88785601  0.21146955    -0.00080
C750        C  0.40633149  0.87890579  0.26467253    -0.08550
C751        C  0.44001789  0.86742978  0.29468201     0.61830
H752        H  0.36990941  0.87434963  0.33044321     0.12530
H753        H  0.38018226  0.90823146  0.14564869     0.12540
C754        C  0.30890932  0.91142232  0.17914733     0.62070
F755        F  0.43234462  0.86081026  0.34653703    -0.23100
F756        F  0.46783789  0.89123091  0.29280893    -0.20430
F757        F  0.45237983  0.83942110  0.27262099    -0.20110
F758        F  0.29482073  0.93847832  0.20198218    -0.20160
F759        F  0.28212798  0.88668370  0.17841120    -0.20480
F760        F  0.31739955  0.91944610  0.12802106    -0.23150
C761        C  0.15513919  0.86589702  0.20098756    -0.05990
C762        C  0.15675235  0.86622627  0.25546139    -0.00060
C763        C  0.12315148  0.86155367  0.28308229    -0.08640
C764        C  0.08908504  0.86385249  0.25587007    -0.06010
C765        C  0.08751514  0.86664889  0.20151190    -0.00080
C766        C  0.12101667  0.86439834  0.17351451    -0.08550
C767        C  0.12252906  0.85627673  0.11619980     0.61830
H768        H  0.18076651  0.86634301  0.17968866     0.12530
H769        H  0.06330957  0.86258203  0.27674106     0.12540
C770        C  0.12291536  0.85029243  0.33950733     0.62070
F771        F  0.14792635  0.87663637  0.09124881    -0.23100
F772        F  0.08895063  0.85838786  0.09045871    -0.20430
F773        F  0.13386749  0.82476778  0.11270171    -0.20110
F774        F  0.14549828  0.87007411  0.36958115    -0.20160
F775        F  0.13533766  0.81900483  0.34240650    -0.20480
F776        F  0.08786498  0.85026719  0.36027664    -0.23150
C777        C  0.39680580  0.80700256  0.46157179    -0.05990
C778        C  0.39760998  0.81499834  0.01453276    -0.00060
C779        C  0.36465413  0.81402935  0.04307841    -0.08640
C780        C  0.33118050  0.81208742  0.51522172    -0.06010
C781        C  0.33066514  0.81143741  0.46058244    -0.00080
C782        C  0.36312586  0.80413616  0.43397658    -0.08550
C783        C  0.36239370  0.79449540  0.37721657     0.61830
H784        H  0.42269408  0.80577995  0.44121471     0.12530
H785        H  0.30549404  0.81564963  0.03517423     0.12540
C786        C  0.36478059  0.81951464  0.10120963     0.62070
F787        F  0.39726167  0.78751460  0.36008533    -0.23100
F788        F  0.34931342  0.81913822  0.34626226    -0.20430
F789        F  0.33950618  0.76724789  0.37104077    -0.20110
F790        F  0.37856114  0.85040399  0.11082980    -0.20160
F791        F  0.38675153  0.79712265  0.12624400    -0.20480
F792        F  0.32965139  0.81653628  0.12162750    -0.23150
C793        C  0.08649119  0.93399019  0.44806859    -0.05990
C794        C  0.08684664  0.93258865  0.00252973    -0.00060
C795        C  0.11988578  0.94011525  0.03035975    -0.08640
C796        C  0.15311164  0.93822541  0.50353953    -0.06010
C797        C  0.15285564  0.93313377  0.44955892    -0.00080
C798        C  0.11944796  0.93628891  0.42066946    -0.08550
C799        C  0.11645762  0.94212423  0.36236968     0.61830
H800        H  0.06037207  0.93162154  0.42684186     0.12530
H801        H  0.17918903  0.93858149  0.02484415     0.12540
C802        C  0.11998364  0.94999271  0.08698961     0.62070
F803        F  0.09921461  0.97115851  0.35334985    -0.23100
F804        F  0.09499861  0.91771453  0.33965744    -0.20430
F805        F  0.15027420  0.94408998  0.33852825    -0.20110
F806        F  0.10506254  0.92557360  0.11762603    -0.20160
F807        F  0.09911297  0.97723161  0.09176721    -0.20480
F808        F  0.15534822  0.95719374  0.10565479    -0.23150
C809        C  0.26770141  0.96933210  0.51699084    -0.05990
C810        C  0.28937906  0.96606846  0.47225972    -0.00060
C811        C  0.31579216  0.99109394  0.46053761    -0.08640
C812        C  0.31645871  0.51973641  0.99082804    -0.06010
C813        C  0.29245281  0.52345721  0.03307608    -0.00080
C814        C  0.26896661  0.49691949  0.54796003    -0.08550
C815        C  0.23981847  0.49769030  0.58999063     0.61830
H816        H  0.24726454  0.95060343  0.52690499     0.12530
H817        H  0.33415823  0.54027784  0.97969912     0.12540
C818        C  0.34295228  0.98771197  0.41688631     0.62070
F819        F  0.23774401  0.46807033  0.61607651    -0.23100
F820        F  0.20591977  0.50307088  0.56634603    -0.20430
F821        F  0.24700818  0.52093393  0.12725984    -0.20110
F822        F  0.32453086  0.98766590  0.36923117    -0.20160
F823        F  0.36129017  0.95897495  0.42343444    -0.20480
F824        F  0.36904030  0.01301591  0.41649755    -0.23150
C825        C  0.21513150  0.75086606  0.40923936    -0.05990
C826        C  0.19536154  0.77432293  0.43412702    -0.00060
C827        C  0.17911477  0.76658037  0.48266097    -0.08640
C828        C  0.18758757  0.73704773  0.00817801    -0.06010
C829        C  0.21304376  0.71585754  0.98727172    -0.00080
C830        C  0.22696299  0.72315694  0.43613674    -0.08550
C831        C  0.25921174  0.70596031  0.41314638     0.61830
H832        H  0.22660201  0.75719218  0.37160745     0.12530
H833        H  0.17638123  0.73160449  0.04620402     0.12540
C834        C  0.15390922  0.79003853  0.50784215     0.62070
F835        F  0.27137415  0.72003535  0.36690463    -0.23100
F836        F  0.24981832  0.67387191  0.40273278    -0.20430
F837        F  0.28813631  0.70835128  0.94861620    -0.20110
F838        F  0.13007079  0.80270935  0.47068535    -0.20160
F839        F  0.17473793  0.81509839  0.53004545    -0.20480
F840        F  0.13291286  0.77472603  0.04609039    -0.23150
O841        O  0.19103039  0.88836182  0.94562532    -0.85560
O842        O  0.21988746  0.82636147  0.95128546    -0.82610
C843        C  0.20492506  0.80807364  0.91777351     0.97900
O844        O  0.20634717  0.81586427  0.87017048    -0.82640
O845        O  0.21824901  0.85185852  0.78172130    -0.85280
C846        C  0.19312679  0.87241481  0.78269709     1.02430
O847        O  0.19843947  0.89856038  0.80711149    -0.78050
O848        O  0.20594749  0.93138494  0.89761001    -0.78230
C849        C  0.18458216  0.91670551  0.92899936     1.02380
O850        O  0.26193027  0.91444702  0.96340422    -0.85560
O851        O  0.29089861  0.85472042  0.95461287    -0.82620
C852        C  0.30032012  0.82844233  0.93480746     0.97920
O853        O  0.28380478  0.81697884  0.89494782    -0.82650
O854        O  0.29716356  0.85675456  0.81108639    -0.85250
C855        C  0.30334133  0.88397923  0.78958904     1.02390
O856        O  0.27977563  0.90596604  0.79217334    -0.78070
O857        O  0.28406464  0.93489920  0.89124305    -0.78220
C858        C  0.27997725  0.93662363  0.94014501     1.02360
Cr859      Cr  0.24114654  0.87124919  0.94777697     1.93740
Cr860      Cr  0.25096914  0.83878398  0.84204882     1.93210
Cr861      Cr  0.24258790  0.91399394  0.84852787     1.39100
O862        O  0.24526032  0.87473626  0.87928242    -1.23310
O863        O  0.05814770  0.60721834  0.94639224    -0.85560
O864        O  0.02705779  0.66759833  0.95765114    -0.82610
C865        C  0.04267761  0.68950596  0.93046458     0.97900
O866        O  0.54509908  0.68545872  0.88187829    -0.82640
O867        O  0.03806606  0.65512659  0.78571932    -0.85280
C868        C  0.06269040  0.63409763  0.78450964     1.02430
O869        O  0.05755375  0.60658989  0.80592292    -0.78050
O870        O  0.04598270  0.56753624  0.89155077    -0.78230
C871        C  0.06547592  0.57994912  0.92785374     1.02380
O872        O  0.48722941  0.57758018  0.95103879    -0.85560
O873        O  0.45719987  0.63860808  0.94667755    -0.82620
C874        C  0.44909696  0.66639960  0.92947286     0.97920
O875        O  0.46742589  0.68074542  0.89417157    -0.82650
O876        O  0.45837358  0.64712145  0.80461129    -0.85250
C877        C  0.45310776  0.62109370  0.78009057     1.02390
O878        O  0.47800053  0.60033612  0.77981869    -0.78070
O879        O  0.96806440  0.56633404  0.87211790    -0.78220
C880        C  0.46902187  0.55934270  0.92022234     1.02360
Cr881      Cr  0.00757825  0.62287589  0.94456718     1.93740
Cr882      Cr  0.50281002  0.66358628  0.84338743     1.93210
Cr883      Cr  0.01204106  0.58858444  0.83961537     1.39100
O884        O  0.00751654  0.62512167  0.87561339    -1.23310
O885        O  0.04475616  0.88875990  0.51119492    -0.85560
O886        O  0.00931004  0.82788654  0.50652574    -0.82610
C887        C  0.02680378  0.80928154  0.53653492     0.97900
O888        O  0.52859222  0.81534467  0.58459723    -0.82640
O889        O  0.02627302  0.84904311  0.67573501    -0.85280
C890        C  0.05097780  0.87146001  0.67541764     1.02430
O891        O  0.04541167  0.89807599  0.65242935    -0.78050
O892        O  0.03722261  0.93103318  0.56140339    -0.78230
C893        C  0.05495364  0.91660487  0.52711819     1.02380
O894        O  0.47669854  0.91800300  0.50064145    -0.85560
O895        O  0.44145561  0.85777640  0.51337716    -0.82620
C896        C  0.43117684  0.83130989  0.53478157     0.97920
O897        O  0.44952814  0.81858966  0.57176168    -0.82650
O898        O  0.44610897  0.85477969  0.65995783    -0.85250
C899        C  0.44247681  0.88217746  0.68031854     1.02390
O900        O  0.46621787  0.90490670  0.67312347    -0.78070
O901        O  0.95893530  0.93401112  0.57615683    -0.78220
C902        C  0.46056957  0.93841979  0.52744621     1.02360
Cr903      Cr  0.49309201  0.87321587  0.51416017     1.93740
Cr904      Cr  0.48813912  0.83789073  0.62035780     1.93210
Cr905      Cr  0.00116949  0.91338192  0.61394783     1.39060
O906        O  0.49394642  0.87482042  0.58330370    -1.23310
O907        O  0.20356689  0.60885386  0.51456023    -0.85560
O908        O  0.24344958  0.66602930  0.49799338    -0.82610
C909        C  0.22665467  0.68794646  0.52013420     0.97900
O910        O  0.22372471  0.68657139  0.56927771    -0.82640
O911        O  0.22526155  0.66001278  0.66949755    -0.85280
C912        C  0.20021957  0.63824874  0.67622363     1.02430
O913        O  0.20335695  0.61003649  0.65894983    -0.78050
O914        O  0.20809280  0.57086143  0.57559383    -0.78230
C915        C  0.19165419  0.58301171  0.53635013     1.02380
O916        O  0.26843780  0.57449735  0.51552012    -0.85560
O917        O  0.30874856  0.63290687  0.51812105    -0.82620
C918        C  0.32026603  0.66087516  0.53144938     0.97920
O919        O  0.30216335  0.67812086  0.56174011    -0.82650
O920        O  0.30503046  0.64899782  0.65617495    -0.85250
C921        C  0.30799572  0.62308353  0.68234560     1.02390
O922        O  0.28177669  0.60212389  0.68321967    -0.78070
O923        O  0.28715865  0.56613570  0.59520605    -0.78220
C924        C  0.28390597  0.55674665  0.54881248     1.02360
Cr925      Cr  0.25605871  0.62108891  0.51747671     1.93740
Cr926      Cr  0.26309020  0.66500331  0.61290377     1.93210
Cr927      Cr  0.24584946  0.59043642  0.62548495     1.39100
O928        O  0.25452619  0.62566186  0.58584065    -1.23310
C929        C  0.38470919  0.61386015  0.78548308    -0.05990
C930        C  0.41630108  0.61491220  0.75398152    -0.00060
C931        C  0.41143322  0.61284406  0.69930337    -0.08640
C932        C  0.37515194  0.61293023  0.67793503    -0.06010
C933        C  0.34399049  0.61665600  0.70921353    -0.00080
C934        C  0.34856229  0.61567192  0.76402338    -0.08550
C935        C  0.31554916  0.61759474  0.79933278     0.61830
H936        H  0.38872120  0.61303224  0.82740169     0.12530
H937        H  0.37089535  0.61140458  0.63613445     0.12540
C938        C  0.44440829  0.61156827  0.66386170     0.62070
F939        F  0.32595309  0.61736726  0.85155352    -0.23100
F940        F  0.29162612  0.59128811  0.79069221    -0.20430
F941        F  0.29718559  0.64592082  0.78884674    -0.20110
F942        F  0.46410841  0.58416488  0.67563302    -0.20160
F943        F  0.46710832  0.63887057  0.67097070    -0.20480
F944        F  0.43380027  0.61037534  0.61174816    -0.23150
C945        C  0.16580715  0.64213031  0.75873770    -0.05990
C946        C  0.16596829  0.64522164  0.70433293    -0.00060
C947        C  0.13233067  0.65104808  0.67710339    -0.08640
C948        C  0.09869116  0.64736531  0.70409286    -0.06010
C949        C  0.09838368  0.64156217  0.75814793    -0.00080
C950        C  0.13251253  0.64259865  0.78642046    -0.08550
C951        C  0.13387105  0.64756649  0.84497167     0.61830
H952        H  0.19196540  0.63977145  0.77935135     0.12530
H953        H  0.07252635  0.64924421  0.68335372     0.12540
C954        C  0.13239728  0.66359206  0.62113784     0.62070
F955        F  0.16966618  0.64744186  0.86489127    -0.23100
F956        F  0.11346085  0.62371185  0.87039184    -0.20430
F957        F  0.11938368  0.67725347  0.85572228    -0.20110
F958        F  0.15070062  0.64315140  0.58892304    -0.20160
F959        F  0.15019359  0.69376874  0.61996507    -0.20480
F960        F  0.09689502  0.66687889  0.60133932    -0.23150
C961        C  0.35263884  0.67345425  0.95134148    -0.05990
C962        C  0.35296280  0.67439457  0.50590735    -0.00060
C963        C  0.38507459  0.68573066  0.53308771    -0.08640
C964        C  0.41829187  0.68660069  0.00579658    -0.06010
C965        C  0.41787935  0.68204715  0.95176115    -0.00080
C966        C  0.38426299  0.68189415  0.92397032    -0.08550
C967        C  0.38184203  0.69210648  0.86735483     0.61830
H968        H  0.32773638  0.66603191  0.93015445     0.12530
H969        H  0.44459481  0.68912662  0.52644743     0.12540
C970        C  0.38451366  0.69596279  0.58944859     0.62070
F971        F  0.34557377  0.69316491  0.84957509    -0.23100
F972        F  0.40009571  0.67116081  0.83699788    -0.20430
F973        F  0.39814717  0.72264636  0.86160945    -0.20110
F974        F  0.37211981  0.67059745  0.62035725    -0.20160
F975        F  0.36109452  0.72155276  0.59413634    -0.20480
F976        F  0.41928732  0.70594170  0.60747465    -0.23150
C977        C  0.09391834  0.55897350  0.00694445    -0.05990
C978        C  0.09552137  0.56206668  0.95241428    -0.00060
C979        C  0.12962567  0.55821665  0.92746249    -0.08640
C980        C  0.16175919  0.56151089  0.95801275    -0.06010
C981        C  0.15999095  0.56603406  0.51193145    -0.00080
C982        C  0.12628612  0.56013666  0.53769967    -0.08550
C983        C  0.12418799  0.55680328  0.59652639     0.61830
H984        H  0.06723314  0.55952118  0.52534278     0.12530
H985        H  0.18839317  0.56289131  0.93919807     0.12540
C986        C  0.13419923  0.55136826  0.86998898     0.62070
F987        F  0.08853340  0.54920283  0.61238113    -0.23100
F988        F  0.13564463  0.58530081  0.62000310    -0.20430
F989        F  0.14668820  0.53229014  0.61367322    -0.20110
F990        F  0.15561326  0.57574973  0.84690339    -0.20160
F991        F  0.10102053  0.54830786  0.84301363    -0.20480
F992        F  0.15230419  0.52254352  0.86542047    -0.23150
C993        C  0.95068261  0.96925992  0.94488572    -0.05990
C994        C  0.44875067  0.96888691  0.49994696    -0.00060
C995        C  0.44273498  0.99859020  0.52539708    -0.08640
C996        C  0.44457760  0.52767357  0.99571655    -0.06010
C997        C  0.45319154  0.52824044  0.94224483    -0.00080
C998        C  0.95407717  0.49834236  0.91562816    -0.08550
C999        C  0.96152244  0.49674067  0.85756186     0.61830
H1000       H  0.95303239  0.94643744  0.92505121     0.12530
H1001       H  0.44263554  0.55065428  0.01529908     0.12540
C1002       C  0.43671433  0.00025016  0.58373062     0.62070
F1003       F  0.96017426  0.96515088  0.83968895    -0.23100
F1004       F  0.99633652  0.50991569  0.84733599    -0.20430
F1005       F  0.93515373  0.51376009  0.82994489    -0.20110
F1006       F  0.46888530  0.99280738  0.61054160    -0.20160
F1007       F  0.40850196  0.97859224  0.59781451    -0.20480
F1008       F  0.42686009  0.53090929  0.59865445    -0.23150
C1009       C  0.55010305  0.72099598  0.01213360    -0.05990
C1010       C  0.05199962  0.72114688  0.95709317    -0.00060
C1011       C  0.05408466  0.75166276  0.93075221    -0.08640
C1012       C  0.04975526  0.78016164  0.95978519    -0.06010
C1013       C  0.04225790  0.77941726  0.51359319    -0.00080
C1014       C  0.54385428  0.74927216  0.54071034    -0.08550
C1015       C  0.53587740  0.74612101  0.59862885     0.61830
H1016       H  0.55003555  0.69788849  0.53243855     0.12530
H1017       H  0.04955939  0.80339005  0.93964197     0.12540
C1018       C  0.05855081  0.75450282  0.87208591     0.62070
F1019       F  0.53784081  0.71439083  0.61661549    -0.23100
F1020       F  0.50059325  0.75632139  0.60803560    -0.20430
F1021       F  0.56142688  0.76476938  0.62680997    -0.20110
F1022       F  0.02738233  0.74178592  0.84680086    -0.20160
F1023       F  0.08929975  0.73805245  0.85747263    -0.20480
F1024       F  0.06336014  0.78642693  0.85569065    -0.23150
C1025       C  0.37192328  0.88059023  0.78953145    -0.05990
C1026       C  0.33950441  0.88950229  0.76243424    -0.00060
C1027       C  0.34255157  0.90060520  0.71002202    -0.08640
C1028       C  0.37747488  0.90027187  0.68583977    -0.06010
C1029       C  0.40881283  0.88785851  0.71147897    -0.00080
C1030       C  0.40633955  0.87890298  0.76467982    -0.08550
C1031       C  0.44002607  0.86742447  0.79468632     0.61830
H1032       H  0.36991708  0.87433936  0.83044939     0.12530
H1033       H  0.38019102  0.90824093  0.64566365     0.12540
C1034       C  0.30891825  0.91142928  0.67916310     0.62070
F1035       F  0.43235278  0.86079977  0.84653980    -0.23100
F1036       F  0.46784573  0.89122611  0.79281920    -0.20430
F1037       F  0.45238852  0.83941826  0.77261803    -0.20110
F1038       F  0.29483108  0.93848469  0.70200161    -0.20160
F1039       F  0.28213579  0.88669160  0.67842424    -0.20480
F1040       F  0.31740830  0.91945524  0.62803760    -0.23150
C1041       C  0.15514826  0.86591516  0.70097741    -0.05990
C1042       C  0.15676151  0.86623212  0.75545151    -0.00060
C1043       C  0.12316111  0.86154955  0.78307025    -0.08640
C1044       C  0.08909409  0.86385097  0.75586011    -0.06010
C1045       C  0.08752371  0.86666005  0.70150358    -0.00080
C1046       C  0.12102557  0.86441864  0.67350439    -0.08550
C1047       C  0.12253786  0.85630341  0.61618757     0.61830
H1048       H  0.18077561  0.86636785  0.67967824     0.12530
H1049       H  0.06331871  0.86257289  0.77673101     0.12540
C1050       C  0.12292652  0.85027589  0.83948888     0.62070
F1051       F  0.14793860  0.87666276  0.59124301    -0.23100
F1052       F  0.08896040  0.85842076  0.59044578    -0.20430
F1053       F  0.13387155  0.82479367  0.61268212    -0.20110
F1054       F  0.14550929  0.87005171  0.86957318    -0.20160
F1055       F  0.13534996  0.81898825  0.84236832    -0.20480
F1056       F  0.08787644  0.85024459  0.86026004    -0.23150
C1057       C  0.39679541  0.80698018  0.96158399    -0.05990
C1058       C  0.39761837  0.81502010  0.51452092    -0.00060
C1059       C  0.36466268  0.81404450  0.54306709    -0.08640
C1060       C  0.33117190  0.81208158  0.01523216    -0.06010
C1061       C  0.33065686  0.81143190  0.96059288    -0.00080
C1062       C  0.36311530  0.80412193  0.93398775    -0.08550
C1063       C  0.36238196  0.79448139  0.87722743     0.61830
H1064       H  0.42268334  0.80575222  0.94122743     0.12530
H1065       H  0.30550144  0.81564978  0.53516398     0.12540
C1066       C  0.36478814  0.81953169  0.60119797     0.62070
F1067       F  0.39724798  0.78749197  0.86009870    -0.23100
F1068       F  0.34931096  0.81912808  0.84627250    -0.20430
F1069       F  0.33948689  0.76723881  0.87104942    -0.20110
F1070       F  0.37856405  0.85042295  0.61081580    -0.20160
F1071       F  0.38676261  0.79714319  0.62623427    -0.20480
F1072       F  0.32965924  0.81654983  0.62161603    -0.23150
C1073       C  0.08648264  0.93395744  0.94805881    -0.05990
C1074       C  0.08685323  0.93261842  0.50253939    -0.00060
C1075       C  0.11989507  0.94012980  0.53037158    -0.08640
C1076       C  0.15310354  0.93822552  0.00352563    -0.06010
C1077       C  0.15284836  0.93313004  0.94954620    -0.00080
C1078       C  0.11943814  0.93626935  0.92065856    -0.08550
C1079       C  0.11644566  0.94210374  0.86235928     0.61830
H1080       H  0.06036415  0.93157872  0.92683335     0.12530
H1081       H  0.17919565  0.93856860  0.52486092     0.12540
C1082       C  0.11999643  0.95000762  0.58700141     0.62070
F1083       F  0.09919054  0.97113214  0.85333890    -0.23100
F1084       F  0.09499632  0.91768797  0.83964742    -0.20430
F1085       F  0.15026273  0.94407974  0.83851936    -0.20110
F1086       F  0.10506089  0.92559516  0.61763695    -0.20160
F1087       F  0.09914107  0.97725590  0.59177715    -0.20480
F1088       F  0.15536359  0.95719334  0.60566985    -0.23150
C1089       C  0.26774869  0.96930901  0.01705262    -0.05990
C1090       C  0.28939379  0.96605842  0.97228471    -0.00060
C1091       C  0.31578158  0.99109820  0.96052584    -0.08640
C1092       C  0.31647032  0.51973347  0.49084762    -0.06010
C1093       C  0.29244691  0.52346167  0.53307358    -0.00080
C1094       C  0.26899925  0.49690404  0.04799616    -0.08550
C1095       C  0.23985802  0.49767311  0.09003745     0.61830
H1096       H  0.24733279  0.95056918  0.02699704     0.12530
H1097       H  0.33418930  0.54026719  0.47974197     0.12540
C1098       C  0.34290881  0.98773610  0.91682733     0.62070
F1099       F  0.23778145  0.46805118  0.11611747    -0.23100
F1100       F  0.20595678  0.50306055  0.06640576    -0.20430
F1101       F  0.24695785  0.52095548  0.62720908    -0.20110
F1102       F  0.32444925  0.98769877  0.86920077    -0.20160
F1103       F  0.36126192  0.95900310  0.92332309    -0.20480
F1104       F  0.36898868  0.01304676  0.91641607    -0.23150
C1105       C  0.21512753  0.75086301  0.90922455    -0.05990
C1106       C  0.19535634  0.77431950  0.93411167    -0.00060
C1107       C  0.17910369  0.76657488  0.98264084    -0.08640
C1108       C  0.18760322  0.73705523  0.50820086    -0.06010
C1109       C  0.21305980  0.71586606  0.48729345    -0.00080
C1110       C  0.22695247  0.72315047  0.93611904    -0.08550
C1111       C  0.25920081  0.70595155  0.91313230     0.61830
H1112       H  0.22660316  0.75719096  0.87159654     0.12530
H1113       H  0.17640046  0.73161298  0.54622945     0.12540
C1114       C  0.15389744  0.79003317  0.00782088     0.62070
F1115       F  0.27136982  0.72002811  0.86689517    -0.23100
F1116       F  0.24980367  0.67386478  0.90271214    -0.20430
F1117       F  0.28815054  0.70836573  0.44862427    -0.20110
F1118       F  0.13006767  0.80271198  0.97066006    -0.20160
F1119       F  0.17472626  0.81508757  0.03003959    -0.20480
F1120       F  0.13293403  0.77473369  0.54612398    -0.23150
O1121       O  0.69104756  0.38835984  0.44564380    -0.85560
O1122       O  0.71990475  0.32636013  0.45129367    -0.82610
C1123       C  0.70493427  0.30807333  0.41778702     0.97900
O1124       O  0.70634957  0.31586289  0.37018287    -0.82640
O1125       O  0.71824352  0.35185397  0.28172718    -0.85280
C1126       C  0.69312056  0.37240927  0.28270849     1.02430
O1127       O  0.69843478  0.39855464  0.30712251    -0.78050
O1128       O  0.70595469  0.43138106  0.39761864    -0.78230
C1129       C  0.68459592  0.41670302  0.42901811     1.02380
O1130       O  0.76195093  0.41444363  0.46339791    -0.85560
O1131       O  0.79091703  0.35471930  0.45459817    -0.82620
C1132       C  0.80033372  0.32843975  0.43479377     0.97920
O1133       O  0.78381165  0.31697480  0.39494034    -0.82650
O1134       O  0.79716008  0.35675070  0.31107506    -0.85250
C1135       C  0.80333565  0.38397555  0.28957684     1.02390
O1136       O  0.77976927  0.40596181  0.29216292    -0.78070
O1137       O  0.78406788  0.43490039  0.39122806    -0.78220
C1138       C  0.77998486  0.43662483  0.44013066     1.02360
Cr1139     Cr  0.74116426  0.37124702  0.44777842     1.93740
Cr1140     Cr  0.75096959  0.33878036  0.34204858     1.93210
Cr1141     Cr  0.74258803  0.41399050  0.34852609     1.39100
O1142       O  0.74526652  0.37473352  0.37928225    -1.23310
O1143       O  0.55815291  0.10726147  0.44638295    -0.85560
O1144       O  0.52706465  0.16764240  0.45763506    -0.82610
C1145       C  0.54268108  0.18954663  0.43043815     0.97900
O1146       O  0.04509629  0.18547904  0.38185052    -0.82640
O1147       O  0.53805266  0.15515112  0.28570569    -0.85280
C1148       C  0.56267617  0.13412123  0.28449848     1.02430
O1149       O  0.55754009  0.10661560  0.30591872    -0.78050
O1150       O  0.54597794  0.06757197  0.39155870    -0.78230
C1151       C  0.56547717  0.07998949  0.42785150     1.02380
O1152       O  0.98724802  0.07759964  0.45104343    -0.85560
O1153       O  0.95721764  0.13862610  0.44669381    -0.82620
C1154       C  0.94910870  0.16641579  0.42948825     0.97920
O1155       O  0.96742700  0.18075980  0.39417404    -0.82650
O1156       O  0.95835995  0.14713102  0.30461929    -0.85250
C1157       C  0.95309234  0.12110312  0.28009954     1.02390
O1158       O  0.97798681  0.10034735  0.27982181    -0.78070
O1159       O  0.46805771  0.06637022  0.37214482    -0.78220
C1160       C  0.96903191  0.05936212  0.42023639     1.02360
Cr1161     Cr  0.50758355  0.12291870  0.44456795     1.93740
Cr1162     Cr  0.00280276  0.16360054  0.34337800     1.93210
Cr1163     Cr  0.51203091  0.08861513  0.33962502     1.39100
O1164       O  0.50751173  0.12515674  0.37561337    -1.23310
O1165       O  0.54475611  0.38873800  0.01120095    -0.85560
O1166       O  0.50930580  0.32786591  0.00654222    -0.82610
C1167       C  0.52679507  0.30926046  0.03655586     0.97900
O1168       O  0.02858562  0.31531430  0.08462176    -0.82640
O1169       O  0.52626787  0.34903543  0.17574564    -0.85280
C1170       C  0.55097259  0.37145236  0.17542652     1.02430
O1171       O  0.54540778  0.39806708  0.15243313    -0.78050
O1172       O  0.53722281  0.43101607  0.06139882    -0.78230
C1173       C  0.55495471  0.41658387  0.02711917     1.02380
O1174       O  0.97669355  0.41796282  0.00062262    -0.85560
O1175       O  0.94145416  0.35773745  0.01337984    -0.82620
C1176       C  0.93117298  0.33127522  0.03479570     0.97920
O1177       O  0.94952197  0.31856069  0.07178346    -0.82650
O1178       O  0.94610429  0.35476472  0.15996362    -0.85250
C1179       C  0.94247148  0.38216563  0.18031280     1.02390
O1180       O  0.96621258  0.40489363  0.17310983    -0.78070
O1181       O  0.45893500  0.43399958  0.07614563    -0.78220
C1182       C  0.96056186  0.43838270  0.02741815     1.02360
Cr1183     Cr  0.99308983  0.37317818  0.01415947     1.93740
Cr1184     Cr  0.98813402  0.33786891  0.12037137     1.93210
Cr1185     Cr  0.50116748  0.41337150  0.11394445     1.39060
O1186       O  0.99394216  0.37479296  0.08330211    -1.23310
O1187       O  0.70354603  0.10883951  0.01456704    -0.85560
O1188       O  0.74342754  0.16601497  0.99798336    -0.82610
C1189       C  0.72664031  0.18793675  0.02012460     0.97900
O1190       O  0.72371360  0.18656464  0.06926827    -0.82640
O1191       O  0.72524874  0.16000993  0.16948768    -0.85280
C1192       C  0.70020526  0.13824741  0.17621467     1.02430
O1193       O  0.70334260  0.11003320  0.15894811    -0.78050
O1194       O  0.70807894  0.07084903  0.07560230    -0.78230
C1195       C  0.69163649  0.08299735  0.03636033     1.02380
O1196       O  0.76841912  0.07448423  0.01552375    -0.85560
O1197       O  0.80872778  0.13289380  0.01810607    -0.82620
C1198       C  0.82025045  0.16086016  0.03143661     0.97920
O1199       O  0.80215145  0.17810807  0.06172869    -0.82650
O1200       O  0.80501660  0.14899248  0.15617006    -0.85250
C1201       C  0.80798060  0.12308059  0.18234685     1.02390
O1202       O  0.78176228  0.10212042  0.18322112    -0.78070
O1203       O  0.78714458  0.06612837  0.09520963    -0.78220
C1204       C  0.78389171  0.05673695  0.04881701     1.02360
Cr1205     Cr  0.75603807  0.12107566  0.01747324     1.93740
Cr1206     Cr  0.76307766  0.16499596  0.11289460     1.93210
Cr1207     Cr  0.74583534  0.09042987  0.12548745     1.39100
O1208       O  0.75451111  0.12565302  0.08583709    -1.23310
C1209       C  0.88469091  0.11389259  0.28549705    -0.05990
C1210       C  0.91628313  0.11492035  0.25399608    -0.00060
C1211       C  0.91141409  0.11282232  0.19932089    -0.08640
C1212       C  0.87513287  0.11290610  0.17795131    -0.06010
C1213       C  0.84397308  0.11665635  0.20922318    -0.00080
C1214       C  0.84854481  0.11570094  0.26403357    -0.08550
C1215       C  0.81553199  0.11764892  0.29933770     0.61830
H1216       H  0.88870206  0.11308230  0.32741625     0.12530
H1217       H  0.87087554  0.11136056  0.13615293     0.12540
C1218       C  0.94438754  0.11151693  0.16388148     0.62070
F1219       F  0.82593447  0.11743992  0.35155895    -0.23100
F1220       F  0.79159902  0.09134567  0.29072345    -0.20430
F1221       F  0.79718005  0.14597690  0.28881930    -0.20110
F1222       F  0.96407387  0.08411059  0.17568569    -0.20160
F1223       F  0.96710079  0.13881444  0.17095710    -0.20480
F1224       F  0.93377828  0.11030336  0.11176976    -0.23150
C1225       C  0.66579190  0.14215016  0.25872415    -0.05990
C1226       C  0.66595281  0.14522501  0.20431753    -0.00060
C1227       C  0.63231520  0.15104462  0.17708324    -0.08640
C1228       C  0.59867571  0.14736906  0.20407405    -0.06010
C1229       C  0.59836851  0.14158185  0.25813290    -0.00080
C1230       C  0.63249731  0.14262695  0.28640536    -0.08550
C1231       C  0.63385574  0.14761192  0.34495232     0.61830
H1232       H  0.69195022  0.13979771  0.27934008     0.12530
H1233       H  0.57251083  0.14924175  0.18333309     0.12540
C1234       C  0.63238180  0.16357628  0.12111100     0.62070
F1235       F  0.66965086  0.14749300  0.36487287    -0.23100
F1236       F  0.61344566  0.12376434  0.37038939    -0.20430
F1237       F  0.61936847  0.17730245  0.35567985    -0.20110
F1238       F  0.65068526  0.14312854  0.08890831    -0.20160
F1239       F  0.65017795  0.19375273  0.11992190    -0.20480
F1240       F  0.59687955  0.16685910  0.10131007    -0.23150
C1241       C  0.85265460  0.17346233  0.45137570    -0.05990
C1242       C  0.85295260  0.17437370  0.00590012    -0.00060
C1243       C  0.88506720  0.18569699  0.03308700    -0.08640
C1244       C  0.91831029  0.18660860  0.50582407    -0.06010
C1245       C  0.91789387  0.18206160  0.45178680    -0.00080
C1246       C  0.88427544  0.18190929  0.42400179    -0.08550
C1247       C  0.88184893  0.19213330  0.36739183     0.61830
H1248       H  0.82775119  0.16604060  0.43019061     0.12530
H1249       H  0.94458859  0.18907432  0.02645696     0.12540
C1250       C  0.88450714  0.19592384  0.08945015     0.62070
F1251       F  0.84557905  0.19319389  0.34961998    -0.23100
F1252       F  0.90010117  0.17119610  0.33701766    -0.20430
F1253       F  0.89815220  0.22267481  0.36166130    -0.20110
F1254       F  0.87210327  0.17055803  0.12034947    -0.20160
F1255       F  0.86109680  0.22151967  0.09414287    -0.20480
F1256       F  0.91928304  0.20589150  0.10748270    -0.23150
C1257       C  0.59392007  0.05901254  0.50694064    -0.05990
C1258       C  0.59552378  0.06210877  0.45241099    -0.00060
C1259       C  0.62962782  0.05826023  0.42745831    -0.08640
C1260       C  0.66176131  0.06154842  0.45800984    -0.06010
C1261       C  0.65997252  0.06601739  0.01194752    -0.00080
C1262       C  0.62626864  0.06012252  0.03771900    -0.08550
C1263       C  0.62417380  0.05678787  0.09654577     0.61830
H1264       H  0.56721524  0.05951099  0.02536701     0.12530
H1265       H  0.68839545  0.06292820  0.43919554     0.12540
C1266       C  0.63420114  0.05142068  0.36998192     0.62070
F1267       F  0.58851982  0.04918831  0.11240399    -0.23100
F1268       F  0.63563341  0.08528418  0.12002376    -0.20430
F1269       F  0.64667375  0.03227319  0.11368757    -0.20110
F1270       F  0.65561532  0.07580574  0.34690630    -0.20160
F1271       F  0.60102233  0.04836478  0.34300576    -0.20480
F1272       F  0.65230572  0.02259665  0.36540118    -0.23150
C1273       C  0.45067394  0.46930123  0.44492192    -0.05990
C1274       C  0.94874151  0.46884574  0.99990685    -0.00060
C1275       C  0.94270149  0.49854728  0.02534845    -0.08640
C1276       C  0.94460911  0.02769731  0.49574787    -0.06010
C1277       C  0.95320310  0.02826229  0.44226930    -0.00080
C1278       C  0.45406364  0.99838381  0.41566564    -0.08550
C1279       C  0.46148195  0.99678075  0.35759195     0.61830
H1280       H  0.45300603  0.44647746  0.42508502     0.12530
H1281       H  0.94268329  0.05067855  0.51533358     0.12540
C1282       C  0.93664799  0.50020584  0.08367429     0.62070
F1283       F  0.46010598  0.46518907  0.33971349    -0.23100
F1284       F  0.49629529  0.00994687  0.34733569    -0.20430
F1285       F  0.43510716  0.01380740  0.32999937    -0.20110
F1286       F  0.96881044  0.49278078  0.11052058    -0.20160
F1287       F  0.90844182  0.47853413  0.09773070    -0.20480
F1288       F  0.92674383  0.03085578  0.09858210    -0.23150
C1289       C  0.05012798  0.22101806  0.51210335    -0.05990
C1290       C  0.55200997  0.22118914  0.45705639    -0.00060
C1291       C  0.55407378  0.25170411  0.43071083    -0.08640
C1292       C  0.54974825  0.28020261  0.45974584    -0.06010
C1293       C  0.54224645  0.27939367  0.01361869    -0.00080
C1294       C  0.04382004  0.24922981  0.04074917    -0.08550
C1295       C  0.03581324  0.24608033  0.09865908     0.61830
H1296       H  0.04998019  0.19784376  0.03248216     0.12530
H1297       H  0.54953741  0.30342991  0.43960069     0.12540
C1298       C  0.55851088  0.25454272  0.37203911     0.62070
F1299       F  0.03774935  0.21434801  0.11664542    -0.23100
F1300       F  0.00053088  0.25629719  0.10803210    -0.20430
F1301       F  0.06135987  0.26471635  0.12686577    -0.20110
F1302       F  0.52733502  0.24181537  0.34678512    -0.20160
F1303       F  0.58925880  0.23810062  0.35739774    -0.20480
F1304       F  0.56330044  0.28646719  0.35563540    -0.23150
C1305       C  0.87191823  0.38059834  0.28952493    -0.05990
C1306       C  0.83949802  0.38949983  0.26242134    -0.00060
C1307       C  0.84254372  0.40059155  0.21000328    -0.08640
C1308       C  0.87746722  0.40025597  0.18582182    -0.06010
C1309       C  0.90880687  0.38785138  0.21146906    -0.00080
C1310       C  0.90633463  0.37890779  0.26467492    -0.08550
C1311       C  0.94002189  0.36743687  0.29468793     0.61830
H1312       H  0.86991266  0.37435725  0.33044667     0.12530
H1313       H  0.88018215  0.40821537  0.14564079     0.12540
C1314       C  0.80890892  0.41140661  0.17913895     0.62070
F1315       F  0.93234891  0.36082236  0.34654454    -0.23100
F1316       F  0.96784016  0.39123932  0.29280868    -0.20430
F1317       F  0.95238601  0.33942655  0.27263477    -0.20110
F1318       F  0.79481705  0.43846370  0.20196628    -0.20160
F1319       F  0.78213036  0.38666562  0.17840946    -0.20480
F1320       F  0.81739838  0.41942578  0.12801070    -0.23150
C1321       C  0.65514097  0.36589511  0.20099290    -0.05990
C1322       C  0.65675395  0.36622676  0.25546667    -0.00060
C1323       C  0.62315266  0.36155809  0.28308767    -0.08640
C1324       C  0.58908666  0.36385917  0.25587491    -0.06010
C1325       C  0.58751723  0.36665333  0.20151631    -0.00080
C1326       C  0.62101850  0.36439859  0.17351952    -0.08550
C1327       C  0.62253035  0.35627642  0.11620487     0.61830
H1328       H  0.68076835  0.36633806  0.17969432     0.12530
H1329       H  0.56331109  0.36259184  0.27674578     0.12540
C1330       C  0.62291555  0.35029815  0.33951346     0.62070
F1331       F  0.64793076  0.37663326  0.09125448    -0.23100
F1332       F  0.58895272  0.35839158  0.09046286    -0.20430
F1333       F  0.63386418  0.32476603  0.11270693    -0.20110
F1334       F  0.64549810  0.37008042  0.36958686    -0.20160
F1335       F  0.63533787  0.31901061  0.34241531    -0.20480
F1336       F  0.58786477  0.35027341  0.36028143    -0.23150
C1337       C  0.89681253  0.30699509  0.46156573    -0.05990
C1338       C  0.89761413  0.31498439  0.01453780    -0.00060
C1339       C  0.86465767  0.31401318  0.04308215    -0.08640
C1340       C  0.83118611  0.31207486  0.51521462    -0.06010
C1341       C  0.83067188  0.31142943  0.46057510    -0.00080
C1342       C  0.86313317  0.30413078  0.43396874    -0.08550
C1343       C  0.86240216  0.29449630  0.37720592     0.61830
H1344       H  0.92270118  0.30577492  0.44120892     0.12530
H1345       H  0.80549781  0.31563686  0.03517560     0.12540
C1346       C  0.86478306  0.31949096  0.10121535     0.62070
F1347       F  0.89727041  0.28751734  0.36007356    -0.23100
F1348       F  0.84932259  0.31914266  0.34625862    -0.20430
F1349       F  0.83951448  0.26724968  0.37102144    -0.20110
F1350       F  0.87856270  0.35037912  0.11084693    -0.20160
F1351       F  0.88675409  0.29709617  0.12624267    -0.20480
F1352       F  0.82965347  0.31650907  0.12163117    -0.23150
C1353       C  0.58650180  0.43399820  0.44808703    -0.05990
C1354       C  0.58685511  0.43259514  0.00253869    -0.00060
C1355       C  0.61989495  0.44011550  0.03037088    -0.08640
C1356       C  0.65312338  0.43821543  0.50355698    -0.06010
C1357       C  0.65286571  0.43312870  0.44957498    -0.00080
C1358       C  0.61945840  0.43629184  0.42068685    -0.08550
C1359       C  0.61646722  0.44212873  0.36238732     0.61830
H1360       H  0.56038182  0.43163547  0.42686078     0.12530
H1361       H  0.67919746  0.43857242  0.02485840     0.12540
C1362       C  0.61999346  0.44999091  0.08700166     0.62070
F1363       F  0.59922884  0.47116548  0.35337019    -0.23100
F1364       F  0.59500337  0.41772208  0.33967505    -0.20430
F1365       F  0.65028288  0.44409059  0.33854326    -0.20110
F1366       F  0.60506745  0.42557265  0.11763481    -0.20160
F1367       F  0.59912763  0.47723258  0.09178124    -0.20480
F1368       F  0.65535870  0.45718628  0.10566926    -0.23150
C1369       C  0.76768822  0.46933386  0.51697827    -0.05990
C1370       C  0.78937786  0.46606693  0.47226022    -0.00060
C1371       C  0.81579786  0.49108907  0.46055108    -0.08640
C1372       C  0.81645500  0.01973215  0.99083793    -0.06010
C1373       C  0.79244277  0.02345379  0.03307858    -0.00080
C1374       C  0.76895483  0.99691667  0.54795421    -0.08550
C1375       C  0.73980428  0.99768769  0.58998134     0.61830
H1376       H  0.74724559  0.45060774  0.52688177     0.12530
H1377       H  0.83415927  0.04027216  0.97971674     0.12540
C1378       C  0.84296932  0.48770226  0.41691548     0.62070
F1379       F  0.73772862  0.96806768  0.61606695    -0.23100
F1380       F  0.70590679  0.00306847  0.56633306    -0.20430
F1381       F  0.74698398  0.02093300  0.12724667    -0.20110
F1382       F  0.82456066  0.48765327  0.36925078    -0.20160
F1383       F  0.86130361  0.45896459  0.42347996    -0.20480
F1384       F  0.86905886  0.51300493  0.41653519    -0.23150
C1385       C  0.71513663  0.25086344  0.40924413    -0.05990
C1386       C  0.69536588  0.27432038  0.43413025    -0.00060
C1387       C  0.67911910  0.26657867  0.48266450    -0.08640
C1388       C  0.68759144  0.23704706  0.00818679    -0.06010
C1389       C  0.71305085  0.21585843  0.98728428    -0.00080
C1390       C  0.72696910  0.22315544  0.43614350    -0.08550
C1391       C  0.75921943  0.20595967  0.41315567     0.61830
H1392       H  0.72660727  0.25718906  0.37161208     0.12530
H1393       H  0.67638260  0.23160300  0.04621098     0.12540
C1394       C  0.65391303  0.29003701  0.50784437     0.62070
F1395       F  0.77138327  0.22003529  0.36691511    -0.23100
F1396       F  0.74982734  0.17387116  0.40274087    -0.20430
F1397       F  0.78814737  0.20835695  0.94864442    -0.20110
F1398       F  0.63007608  0.30270853  0.47068625    -0.20160
F1399       F  0.67474120  0.31509643  0.53005005    -0.20480
F1400       F  0.63291568  0.27472432  0.04609722    -0.23150
O1401       O  0.69104018  0.38835974  0.94563652    -0.85560
O1402       O  0.71989504  0.32635883  0.95129301    -0.82610
C1403       C  0.70492993  0.30807208  0.91778184     0.97900
O1404       O  0.70635061  0.31586284  0.87017875    -0.82640
O1405       O  0.71825255  0.35185557  0.78172823    -0.85280
C1406       C  0.69312988  0.37241125  0.78270669     1.02430
O1407       O  0.69844330  0.39855664  0.80712123    -0.78050
O1408       O  0.70595533  0.43138200  0.89761832    -0.78230
C1409       C  0.68459134  0.41670322  0.92901007     1.02380
O1410       O  0.76194178  0.41444273  0.96340930    -0.85560
O1411       O  0.79090762  0.35471525  0.95461602    -0.82620
C1412       C  0.80032658  0.32843651  0.93481020     0.97920
O1413       O  0.78380926  0.31697383  0.89495151    -0.82650
O1414       O  0.79716735  0.35674973  0.81108943    -0.85250
C1415       C  0.80334488  0.38397426  0.78959135     1.02390
O1416       O  0.77977971  0.40596155  0.79217705    -0.78070
O1417       O  0.78407119  0.43489670  0.89124601    -0.78220
C1418       C  0.77998514  0.43662082  0.94014832     1.02360
Cr1419     Cr  0.74115594  0.37124570  0.94778372     1.93740
Cr1420     Cr  0.75097322  0.33878040  0.84205451     1.93210
Cr1421     Cr  0.74259359  0.41399044  0.84853384     1.39100
O1422       O  0.74526705  0.37473289  0.87928871    -1.23310
O1423       O  0.55813640  0.10723186  0.94639580    -0.85560
O1424       O  0.52704633  0.16761267  0.95764327    -0.82610
C1425       C  0.54266972  0.18951776  0.93045548     0.97900
O1426       O  0.04510028  0.18544913  0.88188502    -0.82640
O1427       O  0.53806298  0.15513318  0.78571378    -0.85280
C1428       C  0.56268728  0.13410408  0.78450892     1.02430
O1429       O  0.55754959  0.10659738  0.80592527    -0.78050
O1430       O  0.54597468  0.06754786  0.89155664    -0.78230
C1431       C  0.56546630  0.07996233  0.92785985     1.02380
O1432       O  0.98723546  0.07756612  0.95103781    -0.85560
O1433       O  0.95720537  0.13859356  0.94668617    -0.82620
C1434       C  0.94910132  0.16638557  0.92948499     0.97920
O1435       O  0.96742824  0.18073285  0.89418316    -0.82650
O1436       O  0.95837300  0.14711220  0.80462064    -0.85250
C1437       C  0.95310669  0.12108556  0.78009714     1.02390
O1438       O  0.97800018  0.10032878  0.77982037    -0.78070
O1439       O  0.46805720  0.06634425  0.87211653    -0.78220
C1440       C  0.96902593  0.05933048  0.92022084     1.02360
Cr1441     Cr  0.50756692  0.12288962  0.94456266     1.93740
Cr1442     Cr  0.00281080  0.16357654  0.84339459     1.93210
Cr1443     Cr  0.51203525  0.08859347  0.83961561     1.39100
O1444       O  0.50750899  0.12513229  0.87560865    -1.23310
O1445       O  0.54476438  0.38876590  0.51120727    -0.85560
O1446       O  0.50931519  0.32789430  0.50653015    -0.82610
C1447       C  0.52680702  0.30928749  0.53653856     0.97900
O1448       O  0.02859610  0.31533748  0.58459794    -0.82640
O1449       O  0.52627574  0.34904417  0.67574156    -0.85280
C1450       C  0.55098091  0.37146069  0.67542827     1.02430
O1451       O  0.54541590  0.39807797  0.65244310    -0.78050
O1452       O  0.53723179  0.43103815  0.56141841    -0.78230
C1453       C  0.55496304  0.41660990  0.52713338     1.02380
O1454       O  0.97669987  0.41799390  0.50063868    -0.85560
O1455       O  0.94145903  0.35776652  0.51337528    -0.82620
C1456       C  0.93118098  0.33129983  0.53477975     0.97920
O1457       O  0.94953203  0.31858069  0.57176118    -0.82650
O1458       O  0.94611121  0.35477236  0.65995530    -0.85250
C1459       C  0.94247895  0.38217007  0.68031607     1.02390
O1460       O  0.96622049  0.40489905  0.67312175    -0.78070
O1461       O  0.45894390  0.43401881  0.57616668    -0.78220
C1462       C  0.96057094  0.43841078  0.52744336     1.02360
Cr1463     Cr  0.99309489  0.37320733  0.51415815     1.93740
Cr1464     Cr  0.98814232  0.33788350  0.62035704     1.93210
Cr1465     Cr  0.50117592  0.41338679  0.61395907     1.39060
O1466       O  0.99394898  0.37481266  0.58330154    -1.23310
O1467       O  0.70356522  0.10885545  0.51456571    -0.85560
O1468       O  0.74345354  0.16602797  0.49800037    -0.82610
C1469       C  0.72665925  0.18794545  0.52014100     0.97900
O1470       O  0.72372874  0.18657025  0.56928433    -0.82640
O1471       O  0.72526190  0.16001147  0.66950336    -0.85280
C1472       C  0.70021941  0.13824808  0.67623046     1.02430
O1473       O  0.70335587  0.11003543  0.65895768    -0.78050
O1474       O  0.70808709  0.07086212  0.57559867    -0.78230
C1475       C  0.69164950  0.08301431  0.53635560     1.02380
O1476       O  0.76843261  0.07449423  0.51552405    -0.85560
O1477       O  0.80874889  0.13290101  0.51812787    -0.82620
C1478       C  0.82026880  0.16086826  0.53145812     0.97920
O1479       O  0.80216732  0.17811483  0.56174921    -0.82650
O1480       O  0.80502995  0.14899211  0.65618501    -0.85250
C1481       C  0.80799428  0.12307687  0.68235354     1.02390
O1482       O  0.78177537  0.10211706  0.68322430    -0.78070
O1483       O  0.78715306  0.06613014  0.59520942    -0.78220
C1484       C  0.78390001  0.05674231  0.54881524     1.02360
Cr1485     Cr  0.75605808  0.12108662  0.51748289     1.93740
Cr1486     Cr  0.76309200  0.16499976  0.61291136     1.93210
Cr1487     Cr  0.74584626  0.09043327  0.62549016     1.39100
O1488       O  0.75452570  0.12565885  0.58584720    -1.23310
C1489       C  0.88470734  0.11386071  0.78549268    -0.05990
C1490       C  0.91629890  0.11490460  0.75399044    -0.00060
C1491       C  0.91142992  0.11282747  0.69931330    -0.08640
C1492       C  0.87514840  0.11291381  0.67794558    -0.06010
C1493       C  0.84398815  0.11664829  0.70922294    -0.00080
C1494       C  0.84856055  0.11567252  0.76403280    -0.08550
C1495       C  0.81554803  0.11760347  0.79934139     0.61830
H1496       H  0.88871960  0.11303798  0.82741138     0.12530
H1497       H  0.87089093  0.11138238  0.63614575     0.12540
C1498       C  0.94440396  0.11154238  0.66387136     0.62070
F1499       F  0.82595204  0.11738044  0.85156210    -0.23100
F1500       F  0.79162086  0.09129870  0.79070812    -0.20430
F1501       F  0.79718907  0.14593087  0.78884709    -0.20110
F1502       F  0.96409948  0.08413770  0.67565161    -0.20160
F1503       F  0.96710865  0.13884283  0.67097011    -0.20480
F1504       F  0.93379484  0.11034373  0.61175862    -0.23150
C1505       C  0.66580498  0.14213292  0.75874308    -0.05990
C1506       C  0.66596784  0.14522275  0.70433808    -0.00060
C1507       C  0.63233141  0.15105072  0.67710650    -0.08640
C1508       C  0.59869092  0.14736928  0.70409382    -0.06010
C1509       C  0.59838157  0.14156719  0.75814908    -0.00080
C1510       C  0.63250954  0.14260398  0.78642370    -0.08550
C1511       C  0.63386630  0.14757624  0.84497396     0.61830
H1512       H  0.69196247  0.13977378  0.77935858     0.12530
H1513       H  0.57252685  0.14924875  0.68335293     0.12540
C1514       C  0.63240049  0.16359538  0.62114139     0.62070
F1515       F  0.66966073  0.14745109  0.86489616    -0.23100
F1516       F  0.61345349  0.12372468  0.87039748    -0.20430
F1517       F  0.61938067  0.17726511  0.85571741    -0.20110
F1518       F  0.65070370  0.14315434  0.58892709    -0.20160
F1519       F  0.65019853  0.19377134  0.61997085    -0.20480
F1520       F  0.59689909  0.16688408  0.60134074    -0.23150
C1521       C  0.85264319  0.17344910  0.95135749    -0.05990
C1522       C  0.85296755  0.17438574  0.50591844    -0.00060
C1523       C  0.88508067  0.18571635  0.53310129    -0.08640
C1524       C  0.91829872  0.18658098  0.00581495    -0.06010
C1525       C  0.91788507  0.18203221  0.95177843    -0.00080
C1526       C  0.88426881  0.18188631  0.92398761    -0.08550
C1527       C  0.88184946  0.19210556  0.86737496     0.61830
H1528       H  0.82773911  0.16603265  0.93016935     0.12530
H1529       H  0.94460113  0.18910687  0.52646231     0.12540
C1530       C  0.88452081  0.19594403  0.58946428     0.62070
F1531       F  0.84558160  0.19316914  0.84959522    -0.23100
F1532       F  0.90010103  0.17116233  0.83701070    -0.20430
F1533       F  0.89815788  0.22264492  0.86163986    -0.20110
F1534       F  0.87212291  0.17057743  0.62036696    -0.20160
F1535       F  0.86110552  0.22153629  0.59415725    -0.20480
F1536       F  0.91929565  0.20591745  0.60749315    -0.23150
C1537       C  0.59390915  0.05898939  0.00695313    -0.05990
C1538       C  0.59551223  0.06208152  0.95242276    -0.00060
C1539       C  0.62961611  0.05822874  0.92747089    -0.08640
C1540       C  0.66174990  0.06152080  0.95802102    -0.06010
C1541       C  0.65998357  0.06604004  0.51193766    -0.00080
C1542       C  0.62627907  0.06014428  0.53770753    -0.08550
C1543       C  0.62418246  0.05680943  0.59653418     0.61830
H1544       H  0.56722581  0.05953262  0.52535387     0.12530
H1545       H  0.68838391  0.06289910  0.93920626     0.12540
C1546       C  0.63418958  0.05137937  0.86999766     0.62070
F1547       F  0.58852806  0.04920962  0.61239039    -0.23100
F1548       F  0.63564091  0.08530599  0.62001223    -0.20430
F1549       F  0.64668213  0.03229513  0.61367803    -0.20110
F1550       F  0.65560388  0.07576029  0.84691121    -0.20160
F1551       F  0.60101107  0.04831857  0.84302205    -0.20480
F1552       F  0.65229443  0.02255448  0.86543046    -0.23150
C1553       C  0.45068306  0.46927165  0.94489013    -0.05990
C1554       C  0.94875462  0.46887880  0.49994490    -0.00060
C1555       C  0.94274257  0.49858246  0.52539599    -0.08640
C1556       C  0.94457756  0.02766181  0.99571252    -0.06010
C1557       C  0.95319402  0.02822861  0.94224173    -0.00080
C1558       C  0.45407046  0.99835349  0.91562880    -0.08550
C1559       C  0.46151353  0.99675169  0.85756187     0.61830
H1560       H  0.45303293  0.44644913  0.92505575     0.12530
H1561       H  0.94263578  0.05064252  0.01529512     0.12540
C1562       C  0.93672346  0.50024255  0.58372990     0.62070
F1563       F  0.46016665  0.46516218  0.83969177    -0.23100
F1564       F  0.49632708  0.00992694  0.84733329    -0.20430
F1565       F  0.43514360  0.01377077  0.82994674    -0.20110
F1566       F  0.96889410  0.49279679  0.61053931    -0.20160
F1567       F  0.90850905  0.47858695  0.59781464    -0.20480
F1568       F  0.92684155  0.03089920  0.59864053    -0.23150
C1569       C  0.05009418  0.22098282  0.01214433    -0.05990
C1570       C  0.55199553  0.22115860  0.95708126    -0.00060
C1571       C  0.55407400  0.25167422  0.93073905    -0.08640
C1572       C  0.54974719  0.28017292  0.95977318    -0.06010
C1573       C  0.54225992  0.27942315  0.51359522    -0.00080
C1574       C  0.04385373  0.24926331  0.54071268    -0.08550
C1575       C  0.03587253  0.24611237  0.59862996     0.61830
H1576       H  0.05003215  0.19787939  0.53244168     0.12530
H1577       H  0.54954635  0.30340099  0.93962941     0.12540
C1578       C  0.55852902  0.25451386  0.87207064     0.62070
F1579       F  0.03783163  0.21438185  0.61661645    -0.23100
F1580       F  0.00058876  0.25631538  0.60803194    -0.20430
F1581       F  0.06142181  0.26475871  0.62681483    -0.20110
F1582       F  0.52735723  0.24179377  0.84679759    -0.20160
F1583       F  0.58927693  0.23806582  0.85744622    -0.20480
F1584       F  0.56333189  0.28643812  0.85567244    -0.23150
C1585       C  0.87192742  0.38058960  0.78953217    -0.05990
C1586       C  0.83950707  0.38949665  0.76243388    -0.00060
C1587       C  0.84255186  0.40059321  0.71001809    -0.08640
C1588       C  0.87747457  0.40025899  0.68583416    -0.06010
C1589       C  0.90881458  0.38785126  0.71147591    -0.00080
C1590       C  0.90634332  0.37890163  0.76467949    -0.08550
C1591       C  0.94003140  0.36742788  0.79468753     0.61830
H1592       H  0.86992267  0.37434306  0.83045193     0.12530
H1593       H  0.88018884  0.40822329  0.64565544     0.12540
C1594       C  0.80891663  0.41141151  0.67915775     0.62070
F1595       F  0.93235962  0.36080735  0.84654272    -0.23100
F1596       F  0.96784919  0.39123099  0.79281395    -0.20430
F1597       F  0.95239567  0.33942043  0.77262534    -0.20110
F1598       F  0.79482741  0.43846836  0.70198932    -0.20160
F1599       F  0.78213646  0.38667185  0.67842719    -0.20480
F1600       F  0.81740458  0.41943252  0.62802970    -0.23150
C1601       C  0.65515042  0.36590704  0.70098879    -0.05990
C1602       C  0.65676393  0.36622854  0.75546275    -0.00060
C1603       C  0.62316330  0.36155033  0.78308239    -0.08640
C1604       C  0.58909651  0.36385307  0.75587195    -0.06010
C1605       C  0.58752622  0.36665854  0.70151490    -0.00080
C1606       C  0.62102760  0.36441184  0.67351604    -0.08550
C1607       C  0.62253886  0.35629460  0.61619976     0.61830
H1608       H  0.68077765  0.36635611  0.67968955     0.12530
H1609       H  0.56332118  0.36257872  0.77674310     0.12540
C1610       C  0.62292782  0.35027931  0.83950249     0.62070
F1611       F  0.64794317  0.37664996  0.59125429    -0.23100
F1612       F  0.58896216  0.35841640  0.59045738    -0.20430
F1613       F  0.63386692  0.32478298  0.61269596    -0.20110
F1614       F  0.64551212  0.37005517  0.86958453    -0.20160
F1615       F  0.63534875  0.31899090  0.84238613    -0.20480
F1616       F  0.58787781  0.35025111  0.86027344    -0.23150
C1617       C  0.89680042  0.30696983  0.96158753    -0.05990
C1618       C  0.89762402  0.31500861  0.51451661    -0.00060
C1619       C  0.86466779  0.31402963  0.54306169    -0.08640
C1620       C  0.83117596  0.31206947  0.01523387    -0.06010
C1621       C  0.83066222  0.31142392  0.96059434    -0.00080
C1622       C  0.86312094  0.30411482  0.93398925    -0.08550
C1623       C  0.86238877  0.29448018  0.87722631     0.61830
H1624       H  0.92268871  0.30574331  0.94123147     0.12530
H1625       H  0.80550658  0.31563535  0.53515675     0.12540
C1626       C  0.86479199  0.31951024  0.60119433     0.62070
F1627       F  0.89725485  0.28749133  0.86009711    -0.23100
F1628       F  0.84931983  0.31913072  0.84627783    -0.20430
F1629       F  0.83949255  0.26723915  0.87103969    -0.20110
F1630       F  0.87856622  0.35040076  0.61082218    -0.20160
F1631       F  0.88676711  0.29711978  0.62622463    -0.20480
F1632       F  0.82966276  0.31652456  0.62161046    -0.23150
C1633       C  0.58649274  0.43396563  0.94806791    -0.05990
C1634       C  0.58686427  0.43262243  0.50255757    -0.00060
C1635       C  0.61990814  0.44012447  0.53039043    -0.08640
C1636       C  0.65311274  0.43822131  0.00353827    -0.06010
C1637       C  0.65285808  0.43312820  0.94955818    -0.00080
C1638       C  0.61944910  0.43627336  0.92066914    -0.08550
C1639       C  0.61645800  0.44210880  0.86236985     0.61830
H1640       H  0.56037436  0.43159107  0.92684111     0.12530
H1641       H  0.67920734  0.43855160  0.52487826     0.12540
C1642       C  0.62001286  0.44999743  0.58702266     0.62070
F1643       F  0.59920581  0.47113864  0.85335004    -0.23100
F1644       F  0.59500653  0.41769489  0.83965660    -0.20430
F1645       F  0.65027523  0.44408267  0.83853043    -0.20110
F1646       F  0.60506915  0.42558606  0.61765230    -0.20160
F1647       F  0.59916687  0.47725082  0.59180491    -0.20480
F1648       F  0.65538199  0.45717226  0.60569320    -0.23150
C1649       C  0.76774320  0.46930955  0.01704605    -0.05990
C1650       C  0.78939603  0.46605726  0.97228633    -0.00060
C1651       C  0.81578713  0.49109567  0.96053509    -0.08640
C1652       C  0.81646637  0.01972867  0.49085281    -0.06010
C1653       C  0.79243928  0.02345741  0.53307447    -0.00080
C1654       C  0.76898234  0.99690297  0.04798741    -0.08550
C1655       C  0.73983740  0.99767206  0.09002339     0.61830
H1656       H  0.74732405  0.45057102  0.02698368     0.12530
H1657       H  0.83418823  0.04026152  0.47975172     0.12540
C1658       C  0.84292128  0.48773125  0.91684598     0.62070
F1659       F  0.73775959  0.96805009  0.11610314    -0.23100
F1660       F  0.70593786  0.00305919  0.06638608    -0.20430
F1661       F  0.74694159  0.02095282  0.62720049    -0.20110
F1662       F  0.82446925  0.48769138  0.86921375    -0.20160
F1663       F  0.86127331  0.45899844  0.92335187    -0.20480
F1664       F  0.86900115  0.51304188  0.91643934    -0.23150
C1665       C  0.71513642  0.25086274  0.90923632    -0.05990
C1666       C  0.69536158  0.27431814  0.93411996    -0.00060
C1667       C  0.67910713  0.26657358  0.98264792    -0.08640
C1668       C  0.68760803  0.23705419  0.50820598    -0.06010
C1669       C  0.71306521  0.21586506  0.48729992    -0.00080
C1670       C  0.72696300  0.22315205  0.93613389    -0.08550
C1671       C  0.75921601  0.20595630  0.91315363     0.61830
H1672       H  0.72661358  0.25719074  0.87160923     0.12530
H1673       H  0.67640502  0.23161245  0.54623455     0.12540
C1674       C  0.65389634  0.29003044  0.00782255     0.62070
F1675       F  0.77138913  0.22003530  0.86692052    -0.23100
F1676       F  0.74982309  0.17386933  0.90272867    -0.20430
F1677       F  0.78815688  0.20836549  0.44863589    -0.20110
F1678       F  0.63006312  0.30270111  0.97065880    -0.20160
F1679       F  0.67472001  0.31509077  0.03003334    -0.20480
F1680       F  0.63293615  0.27473185  0.54612404    -0.23150
O1681       O  0.69104123  0.88836189  0.44564014    -0.85560
O1682       O  0.71989868  0.82636189  0.45129258    -0.82610
C1683       C  0.70492967  0.80807455  0.41778557     0.97900
O1684       O  0.70634532  0.81586422  0.37018156    -0.82640
O1685       O  0.71824038  0.85185508  0.28172636    -0.85280
C1686       C  0.69311787  0.87241085  0.28270628     1.02430
O1687       O  0.69843229  0.89855651  0.30711964    -0.78050
O1688       O  0.70595046  0.93138306  0.39761598    -0.78230
C1689       C  0.68459045  0.91670516  0.42901402     1.02380
O1690       O  0.76194404  0.91444543  0.46339787    -0.85560
O1691       O  0.79091050  0.85472090  0.45460028    -0.82620
C1692       C  0.80032831  0.82844165  0.43479578     0.97920
O1693       O  0.78380710  0.81697655  0.39494176    -0.82650
O1694       O  0.79715665  0.85675158  0.31107608    -0.85250
C1695       C  0.80333306  0.88397630  0.28957798     1.02390
O1696       O  0.77976727  0.90596303  0.29216388    -0.78070
O1697       O  0.78406439  0.93490104  0.39122960    -0.78220
C1698       C  0.77998077  0.93662547  0.44013214     1.02360
Cr1699     Cr  0.74115781  0.87124882  0.44777769     1.93740
Cr1700     Cr  0.75096569  0.83878167  0.34204866     1.93210
Cr1701     Cr  0.74258488  0.91399198  0.34852541     1.39100
O1702       O  0.74526201  0.87473500  0.37928175    -1.23310
O1703       O  0.55815316  0.60726262  0.44637635    -0.85560
O1704       O  0.52706338  0.66764282  0.45762903    -0.82610
C1705       C  0.54267898  0.68954749  0.43043224     0.97900
O1706       O  0.04510024  0.68547978  0.38185423    -0.82640
O1707       O  0.53805234  0.65515154  0.28569998    -0.85280
C1708       C  0.56267595  0.63412173  0.28449272     1.02430
O1709       O  0.55753995  0.60661598  0.30591260    -0.78050
O1710       O  0.54597883  0.56757259  0.39155278    -0.78230
C1711       C  0.56547798  0.57999073  0.42784505     1.02380
O1712       O  0.98725457  0.57760062  0.45105034    -0.85560
O1713       O  0.95722275  0.63862672  0.44670020    -0.82620
C1714       C  0.94911300  0.66641608  0.42949392     0.97920
O1715       O  0.96743076  0.68076008  0.39417907    -0.82650
O1716       O  0.95836359  0.64713185  0.30462382    -0.85250
C1717       C  0.95309500  0.62110372  0.28010499     1.02390
O1718       O  0.97798833  0.60034685  0.27982862    -0.78070
O1719       O  0.46805860  0.56636895  0.37213992    -0.78220
C1720       C  0.96903808  0.55936264  0.42024453     1.02360
Cr1721     Cr  0.50758346  0.62291888  0.44456184     1.93740
Cr1722     Cr  0.00280647  0.66360114  0.34338253     1.93210
Cr1723     Cr  0.51203117  0.58861489  0.33961936     1.39100
O1724       O  0.50751133  0.62515668  0.37560727    -1.23310
O1725       O  0.54475406  0.88873841  0.01119917    -0.85560
O1726       O  0.50930454  0.82786589  0.00654038    -0.82610
C1727       C  0.52679409  0.80926116  0.03655492     0.97900
O1728       O  0.02858239  0.81531303  0.08462025    -0.82640
O1729       O  0.52626514  0.84903637  0.17574353    -0.85280
C1730       C  0.55096962  0.87145349  0.17542432     1.02430
O1731       O  0.54540435  0.89806820  0.15243110    -0.78050
O1732       O  0.53721981  0.93101677  0.06139615    -0.78230
C1733       C  0.55495209  0.91658453  0.02711690     1.02380
O1734       O  0.97669062  0.91796230  0.00062352    -0.85560
O1735       O  0.94145145  0.85773687  0.01337827    -0.82620
C1736       C  0.93117017  0.83127449  0.03479346     0.97920
O1737       O  0.94951893  0.81855964  0.07178113    -0.82650
O1738       O  0.94610059  0.85476317  0.15996199    -0.85250
C1739       C  0.94246841  0.88216380  0.18031250     1.02390
O1740       O  0.96621007  0.90489148  0.17311056    -0.78070
O1741       O  0.45893178  0.93399974  0.07614132    -0.78220
C1742       C  0.96055894  0.93838196  0.02741949     1.02360
Cr1743     Cr  0.99308706  0.87317767  0.01415893     1.93740
Cr1744     Cr  0.98813059  0.83786746  0.12036992     1.93210
Cr1745     Cr  0.50116411  0.91337213  0.11394139     1.39060
O1746       O  0.99393909  0.87479179  0.08330157    -1.23310
O1747       O  0.70354990  0.60883740  0.01456941    -0.85560
O1748       O  0.74342953  0.66601375  0.99798366    -0.82610
C1749       C  0.72664160  0.68793540  0.02012424     0.97900
O1750       O  0.72371531  0.68656392  0.06926803    -0.82640
O1751       O  0.72525106  0.66001049  0.16948824    -0.85280
C1752       C  0.70020737  0.63824800  0.17621429     1.02430
O1753       O  0.70334543  0.61003364  0.15894873    -0.78050
O1754       O  0.70808405  0.57084762  0.07560558    -0.78230
C1755       C  0.69164120  0.58299511  0.03636324     1.02380
O1756       O  0.76842427  0.57448383  0.01552798    -0.85560
O1757       O  0.80873090  0.63289426  0.01810780    -0.82620
C1758       C  0.82025270  0.66086113  0.03143684     0.97920
O1759       O  0.80215336  0.67810904  0.06172849    -0.82650
O1760       O  0.80501960  0.64899440  0.15617074    -0.85250
C1761       C  0.80798363  0.62308314  0.18234921     1.02390
O1762       O  0.78176521  0.60212305  0.18322461    -0.78070
O1763       O  0.78714961  0.56612961  0.09521441    -0.78220
C1764       C  0.78389726  0.55673740  0.04882213     1.02360
Cr1765     Cr  0.75604156  0.62107494  0.01747527     1.93740
Cr1766     Cr  0.76308003  0.66499663  0.11289500     1.93210
Cr1767     Cr  0.74583930  0.59043054  0.12549048     1.39100
O1768       O  0.75451440  0.62565322  0.08583883    -1.23310
C1769       C  0.88469327  0.61389432  0.28550085    -0.05990
C1770       C  0.91628585  0.61492212  0.25400059    -0.00060
C1771       C  0.91141734  0.61282544  0.19932518    -0.08640
C1772       C  0.87513635  0.61290985  0.17795483    -0.06010
C1773       C  0.84397614  0.61665945  0.20922618    -0.00080
C1774       C  0.84854738  0.61570328  0.26403669    -0.08550
C1775       C  0.81553431  0.61765118  0.29934038     0.61830
H1776       H  0.88870398  0.61308344  0.32742010     0.12530
H1777       H  0.87087947  0.61136481  0.13615633     0.12540
C1778       C  0.94439121  0.61152070  0.16388641     0.62070
F1779       F  0.82593641  0.61744189  0.35156179    -0.23100
F1780       F  0.79160128  0.59134805  0.29072549    -0.20430
F1781       F  0.79718259  0.64597929  0.28882213    -0.20110
F1782       F  0.96407724  0.58411403  0.17568951    -0.20160
F1783       F  0.96710454  0.63881795  0.17096412    -0.20480
F1784       F  0.93378256  0.61030836  0.11177439    -0.23150
C1785       C  0.66579206  0.64215333  0.25872186    -0.05990
C1786       C  0.66595393  0.64522570  0.20431496    -0.00060
C1787       C  0.63231646  0.65104293  0.17707867    -0.08640
C1788       C  0.59867654  0.64736738  0.20406845    -0.06010
C1789       C  0.59836852  0.64158265  0.25812786    -0.00080
C1790       C  0.63249680  0.64263013  0.28640156    -0.08550
C1791       C  0.63385382  0.64761737  0.34494798     0.61830
H1792       H  0.69195013  0.63980269  0.27933915     0.12530
H1793       H  0.57251192  0.64923819  0.18332622     0.12540
C1794       C  0.63238346  0.66357235  0.12110520     0.62070
F1795       F  0.66964856  0.64749998  0.36487016    -0.23100
F1796       F  0.61344383  0.62377029  0.37038645    -0.20430
F1797       F  0.61936545  0.67730801  0.35567174    -0.20110
F1798       F  0.65068822  0.64312386  0.08890532    -0.20160
F1799       F  0.65017850  0.69374923  0.11991360    -0.20480
F1800       F  0.59688133  0.66685345  0.10130274    -0.23150
C1801       C  0.85265815  0.67346513  0.45137925    -0.05990
C1802       C  0.85295400  0.67437505  0.00589881    -0.00060
C1803       C  0.88506890  0.68569911  0.03308416    -0.08640
C1804       C  0.91831370  0.68660853  0.50582965    -0.06010
C1805       C  0.91789786  0.68206161  0.45179234    -0.00080
C1806       C  0.88427978  0.68191082  0.42400630    -0.08550
C1807       C  0.88185432  0.69213514  0.36739643     0.61830
H1808       H  0.82775466  0.66604438  0.43019350     0.12530
H1809       H  0.94459016  0.68907694  0.02645203     0.12540
C1810       C  0.88450964  0.69592659  0.08944705     0.62070
F1811       F  0.84558470  0.69319721  0.34962386    -0.23100
F1812       F  0.90010566  0.67119722  0.33702246    -0.20430
F1813       F  0.89815916  0.72267609  0.36166651    -0.20110
F1814       F  0.87210675  0.67056096  0.12034759    -0.20160
F1815       F  0.86109891  0.72152215  0.09413980    -0.20480
F1816       F  0.91928568  0.70589496  0.10747808    -0.23150
C1817       C  0.59392139  0.55901422  0.50693366    -0.05990
C1818       C  0.59552519  0.56211081  0.45240413    -0.00060
C1819       C  0.62962966  0.55826476  0.42745162    -0.08640
C1820       C  0.66176279  0.56155488  0.45800331    -0.06010
C1821       C  0.65997755  0.56601435  0.01195088    -0.00080
C1822       C  0.62627359  0.56011993  0.03772231    -0.08550
C1823       C  0.62417883  0.55678457  0.09654900     0.61830
H1824       H  0.56722019  0.55950967  0.02537053     0.12530
H1825       H  0.68839697  0.56293612  0.43918917     0.12540
C1826       C  0.63420349  0.55142588  0.36997512     0.62070
F1827       F  0.58852473  0.54918548  0.11240718    -0.23100
F1828       F  0.63563921  0.58528033  0.12002803    -0.20430
F1829       F  0.64667820  0.53226923  0.11368975    -0.20110
F1830       F  0.65561502  0.57581273  0.34689954    -0.20160
F1831       F  0.60102471  0.54836743  0.34299940    -0.20480
F1832       F  0.65231111  0.52260343  0.36539380    -0.23150
C1833       C  0.45067258  0.96930170  0.44492218    -0.05990
C1834       C  0.94873893  0.96884521  0.99990862    -0.00060
C1835       C  0.94269890  0.99854660  0.02535061    -0.08640
C1836       C  0.94461865  0.52769751  0.49575784    -0.06010
C1837       C  0.95321070  0.52826261  0.44227859    -0.00080
C1838       C  0.45406316  0.49838300  0.41566390    -0.08550
C1839       C  0.46147680  0.49677919  0.35758905     0.61830
H1840       H  0.45300595  0.94647830  0.42508468     0.12530
H1841       H  0.94269413  0.55067870  0.51534407     0.12540
C1842       C  0.93664398  0.00020465  0.08367615     0.62070
F1843       F  0.46011413  0.96519080  0.33971564    -0.23100
F1844       F  0.49628983  0.50994402  0.34732718    -0.20430
F1845       F  0.43510073  0.51380661  0.33000031    -0.20110
F1846       F  0.96880584  0.99277950  0.11052383    -0.20160
F1847       F  0.90843758  0.97853271  0.09773079    -0.20480
F1848       F  0.92674841  0.53085714  0.09858021    -0.23150
C1849       C  0.05013023  0.72102101  0.51210541    -0.05990
C1850       C  0.55200660  0.72119014  0.45705083    -0.00060
C1851       C  0.55406768  0.75170536  0.43070581    -0.08640
C1852       C  0.54974136  0.78020335  0.45974178    -0.06010
C1853       C  0.54224680  0.77939439  0.01361975    -0.00080
C1854       C  0.04382061  0.74922980  0.04074600    -0.08550
C1855       C  0.03581621  0.74607988  0.09865655     0.61830
H1856       H  0.04998303  0.69784404  0.03247799     0.12530
H1857       H  0.54952879  0.80343077  0.43959715     0.12540
C1858       C  0.55850255  0.75454467  0.37203377     0.62070
F1859       F  0.03775516  0.71434772  0.11664267    -0.23100
F1860       F  0.00053347  0.75629483  0.10803230    -0.20430
F1861       F  0.06136268  0.76471720  0.12686135    -0.20110
F1862       F  0.52732679  0.74181557  0.34678172    -0.20160
F1863       F  0.58925131  0.73810461  0.35738991    -0.20480
F1864       F  0.56328902  0.78646948  0.35563023    -0.23150
C1865       C  0.87191545  0.88059639  0.28952517    -0.05990
C1866       C  0.83949558  0.88949969  0.26242242    -0.00060
C1867       C  0.84254158  0.90059231  0.21000485    -0.08640
C1868       C  0.87746490  0.90025594  0.18582301    -0.06010
C1869       C  0.90880403  0.88784968  0.21146924    -0.00080
C1870       C  0.90633164  0.87890517  0.26467472    -0.08550
C1871       C  0.94001855  0.86743274  0.29468691     0.61830
H1872       H  0.86990981  0.87435451  0.33044660     0.12530
H1873       H  0.88018007  0.90821629  0.14564249     0.12540
C1874       C  0.80890721  0.91140916  0.17914133     0.62070
F1875       F  0.93234557  0.86081758  0.34654332    -0.23100
F1876       F  0.96783770  0.89123442  0.29280846    -0.20430
F1877       F  0.95238147  0.83942240  0.27263235    -0.20110
F1878       F  0.79481690  0.93846654  0.20196983    -0.20160
F1879       F  0.78212740  0.88666921  0.17841121    -0.20480
F1880       F  0.81739676  0.91942871  0.12801326    -0.23150
C1881       C  0.65513832  0.86589743  0.20099027    -0.05990
C1882       C  0.65675133  0.86622826  0.25546408    -0.00060
C1883       C  0.62315010  0.86155831  0.28308485    -0.08640
C1884       C  0.58908401  0.86385937  0.25587226    -0.06010
C1885       C  0.58751448  0.86665465  0.20151382    -0.00080
C1886       C  0.62101582  0.86440061  0.17351690    -0.08550
C1887       C  0.62252765  0.85627830  0.11620229     0.61830
H1888       H  0.68076571  0.86634101  0.17969167     0.12530
H1889       H  0.56330845  0.86259109  0.27674313     0.12540
C1890       C  0.62291311  0.85029696  0.33950992     0.62070
F1891       F  0.64792849  0.87663468  0.09125187    -0.23100
F1892       F  0.58895011  0.85839392  0.09046022    -0.20430
F1893       F  0.63386082  0.82476770  0.11270440    -0.20110
F1894       F  0.64549650  0.87007798  0.36958421    -0.20160
F1895       F  0.63533440  0.81900900  0.34240943    -0.20480
F1896       F  0.58786256  0.85027255  0.36027856    -0.23150
C1897       C  0.89680754  0.80699546  0.46156628    -0.05990
C1898       C  0.89761120  0.81498403  0.01453545    -0.00060
C1899       C  0.86465446  0.81401433  0.04307911    -0.08640
C1900       C  0.83118230  0.81207879  0.51521675    -0.06010
C1901       C  0.83066705  0.81143196  0.46057728    -0.00080
C1902       C  0.86312768  0.80413169  0.43397035    -0.08550
C1903       C  0.86239572  0.79449569  0.37720815     0.61830
H1904       H  0.92269581  0.80577391  0.44120890     0.12530
H1905       H  0.80549472  0.81563772  0.03517134     0.12540
C1906       C  0.86477933  0.81949523  0.10121151     0.62070
F1907       F  0.89726371  0.78751665  0.36007496    -0.23100
F1908       F  0.84931540  0.81914106  0.34625948    -0.20430
F1909       F  0.83950838  0.76724864  0.37102633    -0.20110
F1910       F  0.87855954  0.85038377  0.11083900    -0.20160
F1911       F  0.88674962  0.79710137  0.12624252    -0.20480
F1912       F  0.82964949  0.81651510  0.12162687    -0.23150
C1913       C  0.58649558  0.93399478  0.44808026    -0.05990
C1914       C  0.58685233  0.93259588  0.00253627    -0.00060
C1915       C  0.61989276  0.94011437  0.03036800    -0.08640
C1916       C  0.65311690  0.93822005  0.50355015    -0.06010
C1917       C  0.65285975  0.93313114  0.44956876    -0.00080
C1918       C  0.61945216  0.93629073  0.42068033    -0.08550
C1919       C  0.61646116  0.94212716  0.36238078     0.61830
H1920       H  0.56037593  0.93162962  0.42685395     0.12530
H1921       H  0.67919488  0.93856796  0.02485507     0.12540
C1922       C  0.61999219  0.94999032  0.08699858     0.62070
F1923       F  0.59922066  0.97116281  0.35336284    -0.23100
F1924       F  0.59499934  0.91771931  0.33966843    -0.20430
F1925       F  0.65027718  0.94409081  0.33853772    -0.20110
F1926       F  0.60506328  0.92557368  0.11763219    -0.20160
F1927       F  0.59912954  0.97723397  0.09177729    -0.20480
F1928       F  0.65535803  0.95718269  0.10566646    -0.23150
C1929       C  0.76769891  0.96932914  0.51699275    -0.05990
C1930       C  0.78937922  0.96606569  0.47226421    -0.00060
C1931       C  0.81579331  0.99109096  0.46054560    -0.08640
C1932       C  0.81645952  0.51973373  0.99084055    -0.06010
C1933       C  0.79245006  0.52345440  0.03308462    -0.00080
C1934       C  0.76894382  0.49692063  0.54794093    -0.08550
C1935       C  0.73979031  0.49769207  0.58996362     0.61830
H1936       H  0.74726110  0.95060065  0.52690400     0.12530
H1937       H  0.83416128  0.54027468  0.97971617     0.12540
C1938       C  0.84295537  0.98770918  0.41689673     0.62070
F1939       F  0.73771667  0.46807332  0.61605312    -0.23100
F1940       F  0.70589360  0.50306859  0.56630981    -0.20430
F1941       F  0.74699778  0.52093142  0.12725978    -0.20110
F1942       F  0.82453603  0.98766312  0.36924003    -0.20160
F1943       F  0.86129306  0.95897217  0.42344642    -0.20480
F1944       F  0.86904325  0.01301321  0.41651027    -0.23150
C1945       C  0.71513733  0.75086558  0.40924339    -0.05990
C1946       C  0.69536374  0.77432109  0.43412841    -0.00060
C1947       C  0.67911640  0.76657837  0.48266187    -0.08640
C1948       C  0.68759317  0.73704600  0.00818768    -0.06010
C1949       C  0.71305066  0.71585634  0.98728325    -0.00080
C1950       C  0.72697115  0.72315817  0.43614307    -0.08550
C1951       C  0.75922233  0.70596337  0.41315541     0.61830
H1952       H  0.72660843  0.75719196  0.37161193     0.12530
H1953       H  0.67638673  0.73160322  0.04621371     0.12540
C1954       C  0.65390707  0.79003489  0.50783961     0.62070
F1955       F  0.77138559  0.72003927  0.36691477    -0.23100
F1956       F  0.74983138  0.67387463  0.40274058    -0.20430
F1957       F  0.78814452  0.70835276  0.94863331    -0.20110
F1958       F  0.63006759  0.80270161  0.47068043    -0.20160
F1959       F  0.67473179  0.81509786  0.53004108    -0.20480
F1960       F  0.63291766  0.77472361  0.04609867    -0.23150
O1961       O  0.69103764  0.88835706  0.94563269    -0.85560
O1962       O  0.71989369  0.82635673  0.95128940    -0.82610
C1963       C  0.70492865  0.80806946  0.91777888     0.97900
O1964       O  0.70634890  0.81585980  0.87017552    -0.82640
O1965       O  0.71824938  0.85185268  0.78172418    -0.85280
C1966       C  0.69312704  0.87240872  0.78270182     1.02430
O1967       O  0.69844038  0.89855413  0.80711620    -0.78050
O1968       O  0.70595150  0.93137929  0.89761359    -0.78230
C1969       C  0.68458809  0.91670036  0.92900600     1.02380
O1970       O  0.76193885  0.91444115  0.96340423    -0.85560
O1971       O  0.79090580  0.85471429  0.95461052    -0.82620
C1972       C  0.80032466  0.82843529  0.93480560     0.97920
O1973       O  0.78380742  0.81697223  0.89494715    -0.82650
O1974       O  0.79716451  0.85674810  0.81108448    -0.85250
C1975       C  0.80334166  0.88397278  0.78958656     1.02390
O1976       O  0.77977619  0.90595977  0.79217227    -0.78070
O1977       O  0.78406736  0.93489534  0.89124055    -0.78220
C1978       C  0.77998112  0.93661969  0.94014271     1.02360
Cr1979     Cr  0.74115377  0.87124383  0.94777916     1.93740
Cr1980     Cr  0.75097078  0.83877818  0.84205023     1.93210
Cr1981     Cr  0.74259010  0.91398829  0.84852896     1.39100
O1982       O  0.74526419  0.87473080  0.87928405    -1.23310
O1983       O  0.55814190  0.60723117  0.94640011    -0.85560
O1984       O  0.52705231  0.66761217  0.95764915    -0.82610
C1985       C  0.54267509  0.68951737  0.93046091     0.97900
O1986       O  0.04510016  0.68544972  0.88188110    -0.82640
O1987       O  0.53806604  0.65513344  0.78571898    -0.85280
C1988       C  0.56269039  0.63410444  0.78451325     1.02430
O1989       O  0.55755302  0.60659765  0.80592941    -0.78050
O1990       O  0.54597914  0.56754755  0.89156059    -0.78230
C1991       C  0.56547127  0.57996163  0.92786369     1.02380
O1992       O  0.98723564  0.57756660  0.95103393    -0.85560
O1993       O  0.95720566  0.63859414  0.94668250    -0.82620
C1994       C  0.94910157  0.66638609  0.92948106     0.97920
O1995       O  0.96742820  0.68073312  0.89417866    -0.82650
O1996       O  0.95837349  0.64711231  0.80461606    -0.85250
C1997       C  0.95310745  0.62108554  0.78009279     1.02390
O1998       O  0.97800100  0.60032886  0.77981634    -0.78070
O1999       O  0.46806131  0.56634465  0.87212261    -0.78220
C2000       C  0.96902629  0.55933071  0.92021713     1.02360
Cr2001     Cr  0.50757251  0.62288924  0.94456867     1.93740
Cr2002     Cr  0.00281102  0.66357683  0.84339048     1.93210
Cr2003     Cr  0.51203905  0.58859370  0.83962078     1.39100
O2004       O  0.50751354  0.62513226  0.87561463    -1.23310
O2005       O  0.54475747  0.88876466  0.51120267    -0.85560
O2006       O  0.50930803  0.82789322  0.50652910    -0.82610
C2007       C  0.52680129  0.80928688  0.53653654     0.97900
O2008       O  0.02859457  0.81534094  0.58459503    -0.82640
O2009       O  0.52627221  0.84904423  0.67573998    -0.85280
C2010       C  0.55097787  0.87146030  0.67542489     1.02430
O2011       O  0.54541309  0.89807729  0.65243879    -0.78050
O2012       O  0.53722694  0.93103702  0.56141432    -0.78230
C2013       C  0.55495701  0.91660856  0.52712825     1.02380
O2014       O  0.97669549  0.91799493  0.50063237    -0.85560
O2015       O  0.94145592  0.85776743  0.51337170    -0.82620
C2016       C  0.93117809  0.83130114  0.53477758     0.97920
O2017       O  0.94952982  0.81858240  0.57175874    -0.82650
O2018       O  0.94610913  0.85477455  0.65995233    -0.85250
C2019       C  0.94247589  0.88217250  0.68031179     1.02390
O2020       O  0.96621614  0.90490226  0.67311561    -0.78070
O2021       O  0.45893960  0.93401868  0.57616681    -0.78220
C2022       C  0.96056581  0.93841176  0.52743622     1.02360
Cr2023     Cr  0.99309150  0.87320882  0.51415363     1.93740
Cr2024     Cr  0.98814021  0.83788628  0.62035369     1.93210
Cr2025     Cr  0.50117225  0.91338625  0.61395709     1.39060
O2026       O  0.99394574  0.87481511  0.58329702    -1.23310
O2027       O  0.70356781  0.60885992  0.51456113    -0.85560
O2028       O  0.74345800  0.66603165  0.49800014    -0.82610
C2029       C  0.72666177  0.68794808  0.52014037     0.97900
O2030       O  0.72373007  0.68657226  0.56928354    -0.82640
O2031       O  0.72526283  0.66001333  0.66950275    -0.85280
C2032       C  0.70022042  0.63824996  0.67623002     1.02430
O2033       O  0.70335635  0.61003760  0.65895593    -0.78050
O2034       O  0.70808649  0.57086640  0.57559441    -0.78230
C2035       C  0.69165043  0.58301923  0.53635059     1.02380
O2036       O  0.76843381  0.57449706  0.51552097    -0.85560
O2037       O  0.80875199  0.63290323  0.51813008    -0.82620
C2038       C  0.82027146  0.66087060  0.53146049     0.97920
O2039       O  0.80216907  0.67811724  0.56175033    -0.82650
O2040       O  0.80503036  0.64899329  0.65618517    -0.85250
C2041       C  0.80799472  0.62307733  0.68235191     1.02390
O2042       O  0.78177582  0.60211744  0.68322164    -0.78070
O2043       O  0.78715223  0.56613096  0.59520666    -0.78220
C2044       C  0.78389951  0.55674395  0.54881204     1.02360
Cr2045     Cr  0.75606091  0.62108982  0.51748151     1.93740
Cr2046     Cr  0.76309307  0.66500170  0.61291120     1.93210
Cr2047     Cr  0.74584619  0.59043519  0.62548741     1.39100
O2048       O  0.75452692  0.62566111  0.58584586    -1.23310
C2049       C  0.88470851  0.61385742  0.78548881    -0.05990
C2050       C  0.91629983  0.61490417  0.75398610    -0.00060
C2051       C  0.91143067  0.61282978  0.69930874    -0.08640
C2052       C  0.87514900  0.61291591  0.67794164    -0.06010
C2053       C  0.84398880  0.61664803  0.70922005    -0.00080
C2054       C  0.84856153  0.61566954  0.76402977    -0.08550
C2055       C  0.81554918  0.61759818  0.79933921     0.61830
H2056       H  0.88872111  0.61303269  0.82740739     0.12530
H2057       H  0.87089135  0.61138652  0.63614161     0.12540
C2058       C  0.94440464  0.61154790  0.66386612     0.62070
F2059       F  0.82595360  0.61737329  0.85155977    -0.23100
F2060       F  0.79162276  0.59129321  0.79070353    -0.20430
F2061       F  0.79718923  0.64592550  0.78884829    -0.20110
F2062       F  0.96410210  0.58414385  0.67564313    -0.20160
F2063       F  0.96710761  0.63884916  0.67096754    -0.20480
F2064       F  0.93379530  0.61035092  0.61175334    -0.23150
C2065       C  0.66580764  0.64213263  0.75874426    -0.05990
C2066       C  0.66596961  0.64522435  0.70433948    -0.00060
C2067       C  0.63233296  0.65105396  0.67710965    -0.08640
C2068       C  0.59869287  0.64737196  0.70409782    -0.06010
C2069       C  0.59838433  0.64156785  0.75815263    -0.00080
C2070       C  0.63251275  0.64260339  0.78642615    -0.08550
C2071       C  0.63387067  0.64757433  0.84497671     0.61830
H2072       H  0.69196542  0.63977241  0.77935862     0.12530
H2073       H  0.57252853  0.64925262  0.68335801     0.12540
C2074       C  0.63240158  0.66360105  0.62114590     0.62070
F2075       F  0.66966542  0.64744829  0.86489758    -0.23100
F2076       F  0.61345794  0.62372249  0.87039962    -0.20430
F2077       F  0.61938577  0.67726315  0.85572252    -0.20110
F2078       F  0.65070425  0.64316133  0.58892873    -0.20160
F2079       F  0.65019992  0.69377693  0.61997839    -0.20480
F2080       F  0.59690001  0.66689084  0.60134650    -0.23150
C2081       C  0.85264381  0.67344910  0.95135629    -0.05990
C2082       C  0.85297050  0.67438819  0.50592192    -0.00060
C2083       C  0.88508359  0.68571786  0.53310568    -0.08640
C2084       C  0.91829999  0.68658294  0.00581097    -0.06010
C2085       C  0.91788552  0.68203293  0.95177468    -0.00080
C2086       C  0.88426882  0.68188599  0.92398494    -0.08550
C2087       C  0.88184849  0.69210247  0.86737118     0.61830
H2088       H  0.82773987  0.66603097  0.93016925     0.12530
H2089       H  0.94460429  0.68910611  0.52646871     0.12540
C2090       C  0.88452291  0.69594727  0.58946780     0.62070
F2091       F  0.84558031  0.69316542  0.84959250    -0.23100
F2092       F  0.90009930  0.67115740  0.83700935    -0.20430
F2093       F  0.89815708  0.72264144  0.86163143    -0.20110
F2094       F  0.87212255  0.67058234  0.62037200    -0.20160
F2095       F  0.86110910  0.72154090  0.59415728    -0.20480
F2096       F  0.91929787  0.70591957  0.60749771    -0.23150
C2097       C  0.59391402  0.55898774  0.00695651    -0.05990
C2098       C  0.59551707  0.56208033  0.95242617    -0.00060
C2099       C  0.62962082  0.55822702  0.92747413    -0.08640
C2100       C  0.66175472  0.56151796  0.95802432    -0.06010
C2101       C  0.65998447  0.56604587  0.51193126    -0.00080
C2102       C  0.62628016  0.56014813  0.53770090    -0.08550
C2103       C  0.62418312  0.55681409  0.59652764     0.61830
H2104       H  0.56722689  0.55953273  0.52534653     0.12530
H2105       H  0.68838872  0.56289599  0.93920951     0.12540
C2106       C  0.63419415  0.55137834  0.87000064     0.62070
F2107       F  0.58852903  0.54921248  0.61238338    -0.23100
F2108       F  0.63563910  0.58531173  0.62000447    -0.20430
F2109       F  0.64668446  0.53230144  0.61367331    -0.20110
F2110       F  0.65560947  0.57575895  0.84691522    -0.20160
F2111       F  0.60101561  0.54831894  0.84302478    -0.20480
F2112       F  0.65229791  0.52255298  0.86543243    -0.23150
C2113       C  0.45068052  0.96927120  0.94488514    -0.05990
C2114       C  0.94874786  0.96887887  0.49993644    -0.00060
C2115       C  0.94273317  0.99858240  0.52538640    -0.08640
C2116       C  0.94457901  0.52766225  0.99570967    -0.06010
C2117       C  0.95319473  0.52822880  0.94223863    -0.00080
C2118       C  0.45407365  0.49835400  0.91563417    -0.08550
C2119       C  0.46151643  0.49675232  0.85756713     0.61830
H2120       H  0.45303115  0.94644865  0.92505110     0.12530
H2121       H  0.94263711  0.55064308  0.01529188     0.12540
C2122       C  0.93671126  0.00024258  0.58371962     0.62070
F2123       F  0.46016451  0.96516147  0.83968687    -0.23100
F2124       F  0.49633019  0.50992705  0.84733840    -0.20430
F2125       F  0.43514675  0.51377195  0.82995242    -0.20110
F2126       F  0.96888148  0.99279934  0.61053210    -0.20160
F2127       F  0.90849810  0.97858518  0.59780243    -0.20480
F2128       F  0.92685732  0.53089979  0.59865270    -0.23150
C2129       C  0.05009529  0.72098317  0.01214046    -0.05990
C2130       C  0.55199962  0.72115873  0.95708579    -0.00060
C2131       C  0.55407821  0.75167395  0.93074241    -0.08640
C2132       C  0.54974956  0.78017304  0.95977490    -0.06010
C2133       C  0.54225468  0.77942317  0.51359169    -0.00080
C2134       C  0.04385442  0.74926654  0.54071318    -0.08550
C2135       C  0.03587243  0.74611629  0.59863033     0.61830
H2136       H  0.05003510  0.69788272  0.53244482     0.12530
H2137       H  0.54954877  0.80340081  0.93963019     0.12540
C2138       C  0.55853545  0.75451267  0.87207433     0.62070
F2139       F  0.03783244  0.71438612  0.61661822    -0.23100
F2140       F  0.00058808  0.75631848  0.60803073    -0.20430
F2141       F  0.06142061  0.76476376  0.62681522    -0.20110
F2142       F  0.52736474  0.74179202  0.84679936    -0.20160
F2143       F  0.58928418  0.73806464  0.85745309    -0.20480
F2144       F  0.56333854  0.78643665  0.85567517    -0.23150
C2145       C  0.87192388  0.88058660  0.78952687    -0.05990
C2146       C  0.83950396  0.88949588  0.76242970    -0.00060
C2147       C  0.84254944  0.90059614  0.71001587    -0.08640
C2148       C  0.87747236  0.90026309  0.68583236    -0.06010
C2149       C  0.90881175  0.88785292  0.71147232    -0.00080
C2150       C  0.90633986  0.87889968  0.76467430    -0.08550
C2151       C  0.94002744  0.86742355  0.79468090     0.61830
H2152       H  0.86991876  0.87433769  0.83044566     0.12530
H2153       H  0.88018717  0.90822993  0.64565496     0.12540
C2154       C  0.80891483  0.91141722  0.67915689     0.62070
F2155       F  0.93235524  0.86080034  0.84653517    -0.23100
F2156       F  0.96784592  0.89122616  0.79281085    -0.20430
F2157       F  0.95239097  0.83941704  0.77261482    -0.20110
F2158       F  0.79482637  0.93847295  0.70199276    -0.20160
F2159       F  0.78213387  0.88667826  0.67842190    -0.20480
F2160       F  0.81740344  0.91944128  0.62803019    -0.23150
C2161       C  0.65514747  0.86590647  0.70098370    -0.05990
C2162       C  0.65676120  0.86622639  0.75545771    -0.00060
C2163       C  0.62316073  0.86154801  0.78307755    -0.08640
C2164       C  0.58909385  0.86385122  0.75586759    -0.06010
C2165       C  0.58752332  0.86665797  0.70151071    -0.00080
C2166       C  0.62102452  0.86441214  0.67351123    -0.08550
C2167       C  0.62253548  0.85629645  0.61619433     0.61830
H2168       H  0.68077460  0.86635611  0.67968419     0.12530
H2169       H  0.56331862  0.86257649  0.77673899     0.12540
C2170       C  0.62292561  0.85027700  0.83949763     0.62070
F2171       F  0.64793895  0.87665307  0.59124970    -0.23100
F2172       F  0.58895845  0.85841791  0.59045269    -0.20430
F2173       F  0.63386449  0.82478525  0.61268835    -0.20110
F2174       F  0.64550948  0.87005329  0.86957954    -0.20160
F2175       F  0.63534739  0.81898888  0.84238129    -0.20480
F2176       F  0.58787564  0.85024825  0.86026874    -0.23150
C2177       C  0.89679790  0.80696816  0.96158568    -0.05990
C2178       C  0.89762027  0.81501015  0.51451664    -0.00060
C2179       C  0.86466447  0.81403322  0.54306265    -0.08640
C2180       C  0.83117303  0.81206962  0.01523041    -0.06010
C2181       C  0.83065978  0.81142275  0.96059097    -0.00080
C2182       C  0.86311862  0.80411287  0.93398688    -0.08550
C2183       C  0.86238665  0.79447668  0.87722460     0.61830
H2184       H  0.92268637  0.80574071  0.94123032     0.12530
H2185       H  0.80550331  0.81564055  0.53515953     0.12540
C2186       C  0.86478982  0.81951634  0.60119462     0.62070
F2187       F  0.89725290  0.78748785  0.86009609    -0.23100
F2188       F  0.84931713  0.81912612  0.84627412    -0.20430
F2189       F  0.83949096  0.76723511  0.87103998    -0.20110
F2190       F  0.87856460  0.85040721  0.61081822    -0.20160
F2191       F  0.88676509  0.79712674  0.62622673    -0.20480
F2192       F  0.82966097  0.81653197  0.62161229    -0.23150
C2193       C  0.58648968  0.93396619  0.94806550    -0.05990
C2194       C  0.58685801  0.93262072  0.50255093    -0.00060
C2195       C  0.61990113  0.94012677  0.53038332    -0.08640
C2196       C  0.65311012  0.93821814  0.00353506    -0.06010
C2197       C  0.65285488  0.93312506  0.94955492    -0.00080
C2198       C  0.61944592  0.93627168  0.92066616    -0.08550
C2199       C  0.61645437  0.94210577  0.86236654     0.61830
H2200       H  0.56037099  0.93159263  0.92683912     0.12530
H2201       H  0.67920103  0.93855946  0.52487114     0.12540
C2202       C  0.62000462  0.95000127  0.58701478     0.62070
F2203       F  0.59920399  0.97113633  0.85334528    -0.23100
F2204       F  0.59500104  0.91769222  0.83965551    -0.20430
F2205       F  0.65027120  0.94407732  0.83852595    -0.20110
F2206       F  0.60506550  0.92558873  0.61764659    -0.20160
F2207       F  0.59915376  0.97725186  0.59179537    -0.20480
F2208       F  0.65537289  0.95718148  0.60568386    -0.23150
C2209       C  0.76773232  0.96931082  0.01703445    -0.05990
C2210       C  0.78938944  0.96605700  0.97227952    -0.00060
C2211       C  0.81578330  0.99109395  0.96053271    -0.08640
C2212       C  0.81646916  0.51972728  0.49085733    -0.06010
C2213       C  0.79243578  0.52345843  0.53307115    -0.00080
C2214       C  0.76899314  0.49690220  0.04799814    -0.08550
C2215       C  0.73984954  0.49767101  0.09003614     0.61830
H2216       H  0.74731086  0.95057344  0.02696838     0.12530
H2217       H  0.83419641  0.54025807  0.47976292     0.12540
C2218       C  0.84292166  0.98772735  0.91684947     0.62070
F2219       F  0.73777177  0.46804878  0.11611514    -0.23100
F2220       F  0.70594943  0.50305889  0.06640116    -0.20430
F2221       F  0.74692222  0.52095985  0.62718005    -0.20110
F2222       F  0.82447438  0.98768646  0.86921367    -0.20160
F2223       F  0.86127199  0.95899412  0.92336163    -0.20480
F2224       F  0.86900246  0.01303724  0.91644587    -0.23150
C2225       C  0.71513281  0.75085940  0.90923348    -0.05990
C2226       C  0.69536009  0.77431573  0.93411845    -0.00060
C2227       C  0.67910796  0.76657211  0.98264837    -0.08640
C2228       C  0.68760720  0.73705451  0.50820380    -0.06010
C2229       C  0.71306675  0.71586710  0.48729900    -0.00080
C2230       C  0.72695982  0.72314863  0.93613072    -0.08550
C2231       C  0.75921048  0.70595135  0.91314705     0.61830
H2232       H  0.72660821  0.75718665  0.87160502     0.12530
H2233       H  0.67640348  0.73161186  0.54623165     0.12540
C2234       C  0.65390006  0.79003005  0.00782617     0.62070
F2235       F  0.77138039  0.72002836  0.86691075    -0.23100
F2236       F  0.74981594  0.67386411  0.90272651    -0.20430
F2237       F  0.78815985  0.70836990  0.44863553    -0.20110
F2238       F  0.63006827  0.80270500  0.97066443    -0.20160
F2239       F  0.67472683  0.81508723  0.03004066    -0.20480
F2240       F  0.63293310  0.77472945  0.54612216    -0.23150
loop_ 
_geom_bond_atom_site_label_1 
_geom_bond_atom_site_label_2 
_geom_bond_distance 
_geom_bond_site_symmetry_2 
_ccdc_geom_bond_type 
O1          Cr19   1.968       .  S
O1            C9   1.266       .  A
O2          Cr19   1.981       .  S
O2            C3   1.254       .  A
C3            O4   1.259       .  A
C3          C266   1.479       .  S
O4          Cr20   1.986       .  S
O5          Cr20   2.010       .  S
O5            C6   1.264       .  A
C6            O7   1.261       .  A
C6          C202   1.495       .  S
O7          Cr21   1.994       .  S
O8          Cr21   2.000       .  S
O8            C9   1.261       .  A
C9          C237   1.462       .  S
O10         Cr19   1.953       .  S
O10          C18   1.256       .  A
O11         Cr19   1.951       .  S
O11          C12   1.262       .  A
C12          O13   1.264       .  A
C12         C221   1.466       .  S
O13         Cr20   2.011       .  S
O14         Cr20   1.981       .  S
O14          C15   1.259       .  A
C15          O16   1.268       .  A
C15         C186   1.503       .  S
O16         Cr21   2.029       .  S
O17         Cr21   2.019       .  S
O17          C18   1.268       .  A
C18         C250   1.502       .  S
Cr19         O22   1.768       .  S
Cr20         O22   1.793       .  S
Cr21         O22   1.795       .  S
O23         Cr41   1.961       .  S
O23          C31   1.264       .  A
O24         Cr41   1.982       .  S
O24          C25   1.259       .  A
C25        O1146   1.264       .  A
C25         C170   1.505       .  S
O26         Cr42   2.002       .  S
O26        C1145   1.264       .  A
O27       Cr1162   2.011       .  S
O27          C28   1.265       .  A
C28          O29   1.263       .  A
C28         C109   1.490       .  S
O29         Cr43   1.991       .  S
O30         Cr43   2.005       .  S
O30          C31   1.261       .  A
C31         C138   1.463       .  S
O32       Cr1161   1.990       .  S
O32          C40   1.260       .  A
O33       Cr1161   1.957       .  S
O33          C34   1.264       .  A
C34          O35   1.261       .  A
C34         C125   1.449       .  S
O35         Cr42   1.995       .  S
O36         Cr42   1.981       .  S
O36          C37   1.258       .  A
C37          O38   1.263       .  A
C37          C90   1.496       .  S
O38       Cr1163   2.014       .  S
O39         Cr43   2.000   1_655  S
O39        C1160   1.263       .  A
C40        O1159   1.263       .  A
C40         C157   1.495       .  S
Cr41       O1152   1.990   1_455  S
Cr41       O1153   1.957   1_455  S
Cr41         O44   1.769       .  S
Cr42       O1147   2.011       .  S
Cr42       O1164   1.789       .  S
Cr43       O1158   2.014   1_455  S
Cr43         O44   1.790       .  S
O44       Cr1162   1.789       .  S
O45       Cr1183   1.959   1_455  S
O45          C53   1.264       .  A
O46       Cr1183   1.990   1_455  S
O46          C47   1.257       .  A
C47        O1168   1.260       .  A
C47         C173   1.500       .  S
O48         Cr64   2.002       .  S
O48        C1167   1.260       .  A
O49       Cr1184   2.010   1_455  S
O49          C50   1.264       .  A
C50          O51   1.259       .  A
C50         C205   1.490       .  S
O51         Cr65   1.983       .  S
O52         Cr65   2.005       .  S
O52          C53   1.264       .  A
C53         C234   1.459       .  S
O54         Cr63   1.982       .  S
O54          C62   1.258       .  A
O55         Cr63   1.954       .  S
O55          C56   1.262       .  A
C56          O57   1.266       .  A
C56         C218   1.459       .  S
O57         Cr64   2.007       .  S
O58         Cr64   1.993       .  S
O58          C59   1.262       .  A
C59          O60   1.264       .  A
C59         C189   1.495       .  S
O60       Cr1185   2.012       .  S
O61         Cr65   2.003   1_655  S
O61        C1182   1.262       .  A
C62        O1181   1.262       .  A
C62         C154   1.503   1_554  S
Cr63       O1165   1.959       .  S
Cr63       O1166   1.989       .  S
Cr63         O66   1.774       .  S
Cr64       O1169   2.010       .  S
Cr64         O66   1.792       .  S
Cr65       O1180   2.012   1_455  S
Cr65       O1186   1.792   1_455  S
O66       Cr1185   1.792       .  S
O67         Cr85   1.950       .  S
O67          C75   1.263       .  A
O68         Cr85   1.978   1_556  S
O68          C69   1.253   1_556  A
C69          O70   1.266       .  A
C69         C269   1.508   1_554  S
O70         Cr86   2.018       .  S
O71         Cr86   2.016       .  S
O71          C72   1.266       .  A
C72          O73   1.259       .  A
C72         C106   1.483       .  S
O73         Cr87   1.975       .  S
O74         Cr87   2.012       .  S
O74          C75   1.266       .  A
C75         C141   1.459       .  S
O76         Cr85   1.988       .  S
O76          C84   1.254       .  A
O77         Cr85   1.953       .  S
O77          C78   1.262       .  A
C78          O79   1.265       .  A
C78         C122   1.454       .  S
O79         Cr86   2.002       .  S
O80         Cr86   1.990       .  S
O80          C81   1.260       .  A
C81          O82   1.262       .  A
C81          C93   1.493       .  S
O82         Cr87   2.006       .  S
O83         Cr87   2.000       .  S
O83          C84   1.258       .  A
C84         C253   1.479       .  S
Cr85         O88   1.767       .  S
Cr86         O88   1.787       .  S
Cr87         O88   1.784       .  S
C89          C90   1.411       .  A
C89          C94   1.415       .  A
C89          H96   1.082       .  S
C90          C91   1.413       .  A
C91          C92   1.414       .  A
C91          C98   1.515       .  S
C92          C93   1.409       .  A
C92          H97   1.082       .  S
C93          C94   1.412       .  A
C94          C95   1.516       .  S
C95          F99   1.384       .  S
C95         F100   1.383       .  S
C95         F101   1.384       .  S
C98         F102   1.383       .  S
C98         F103   1.383       .  S
C98         F104   1.385       .  S
C105        C106   1.399       .  A
C105        C110   1.410       .  A
C105        H112   1.083       .  S
C106        C107   1.419       .  A
C107        C108   1.414       .  A
C107        C114   1.519       .  S
C108        C109   1.403       .  A
C108        H113   1.083       .  S
C109        C110   1.421       .  A
C110        C111   1.517       .  S
C111        F115   1.385       .  S
C111        F116   1.374       .  S
C111        F117   1.380       .  S
C114        F118   1.380       .  S
C114        F119   1.382       .  S
C114        F120   1.384       .  S
C121        C126   1.385       .  A
C121        C402   1.399       .  A
C121        H128   1.082       .  S
C122        C123   1.414       .  A
C122        C401   1.399   1_554  A
C123        C404   1.401       .  A
C123        C130   1.511       .  S
C124        C125   1.400       .  A
C124        C403   1.401       .  A
C124        H409   1.083       .  S
C125        C126   1.399       .  A
C126        C127   1.508       .  S
C127        F131   1.384       .  S
C127        F132   1.364       .  S
C127        F133   1.380       .  S
H129        C404   1.083       .  S
C130        F134   1.372       .  S
C130        F135   1.383       .  S
C130        F136   1.385       .  S
C137        C138   1.404       .  A
C137        C422   1.401       .  A
C137        H424   1.084       .  S
C138        C139   1.415       .  A
C139        C140   1.395       .  A
C139        C146   1.517       .  S
C140        C421   1.400       .  A
C140        H145   1.085       .  S
C141        C142   1.410       .  A
C141        C420   1.400   1_554  A
C142        C417   1.401       .  A
C142        C143   1.515       .  S
C143        F147   1.385       .  S
C143        F148   1.375       .  S
C143        F149   1.381       .  S
H144        C417   1.084       .  S
C146        F150   1.382       .  S
C146        F151   1.378       .  S
C146        F152   1.383       .  S
C153       C1554   1.413       .  A
C153        C718   1.409       .  A
C153        H160   1.082       .  S
C154        C155   1.420   1_556  A
C154       C1553   1.413       .  A
C155        C996   1.412   1_554  A
C155        C162   1.518       .  S
C156        C157   1.411       .  A
C156        C995   1.412   1_545  A
C156        H161   1.083       .  S
C157       C1278   1.417   1_545  A
C158        C713   1.409       .  A
C158       C1277   1.417   1_565  A
C158        C159   1.520       .  S
C159        F164   1.384   1_565  S
C159        F165   1.383   1_565  S
C159        F723   1.385       .  S
C162        F166   1.383       .  S
C162        F167   1.384       .  S
C162        F728   1.385       .  S
F163        C719   1.385       .  S
F168        C722   1.385       .  S
C169       C1290   1.414       .  A
C169        C454   1.411       .  A
C169        H456   1.081       .  S
C170        C171   1.420       .  A
C170       C1289   1.414       .  A
C171        C172   1.413       .  A
C171        C178   1.518       .  S
C172        C453   1.411       .  A
C172        H177   1.082       .  S
C173        C452   1.411   1_554  A
C173       C1294   1.418       .  A
C174        C449   1.411       .  A
C174       C1293   1.418       .  A
C174        C175   1.521       .  S
C175        F179   1.385       .  S
C175        F180   1.384       .  S
C175        F181   1.383       .  S
H176        C449   1.081       .  S
C178        F182   1.383       .  S
C178        F183   1.382       .  S
C178        F184   1.382       .  S
C185        C186   1.410       .  A
C185        C190   1.413       .  A
C185        H192   1.080       .  S
C186        C187   1.419       .  A
C187        C188   1.418       .  A
C187        C194   1.517       .  S
C188        C189   1.409       .  A
C188        H193   1.082       .  S
C189        C190   1.412       .  A
C190        C191   1.516       .  S
C191        F195   1.385       .  S
C191        F196   1.383       .  S
C191        F197   1.383       .  S
C194        F198   1.382       .  S
C194        F199   1.383       .  S
C194        F200   1.385       .  S
C201        C202   1.397       .  A
C201        C206   1.411       .  A
C201        H208   1.084       .  S
C202        C203   1.424       .  A
C203        C204   1.412       .  A
C203        C210   1.513       .  S
C204        C205   1.397       .  A
C204        H209   1.083       .  S
C205        C206   1.426       .  A
C206        C207   1.513       .  S
C207        F211   1.383       .  S
C207        F212   1.378       .  S
C207        F213   1.379       .  S
C210        F214   1.370       .  S
C210        F215   1.380       .  S
C210        F216   1.385       .  S
C217        C222   1.401       .  A
C217        C498   1.401       .  A
C217        H224   1.084       .  S
C218        C219   1.410       .  A
C218        C497   1.401   1_554  A
C219        C500   1.396       .  A
C219        C226   1.510       .  S
C220        C221   1.401       .  A
C220        C499   1.396       .  A
C220        H505   1.084       .  S
C221        C222   1.412       .  A
C222        C223   1.513       .  S
C223        F227   1.384       .  S
C223        F228   1.372       .  S
C223        F229   1.382       .  S
H225        C500   1.084       .  S
C226        F230   1.376       .  S
C226        F231   1.383       .  S
C226        F232   1.385       .  S
C233        C238   1.395       .  A
C233        C514   1.397       .  A
C233        H240   1.085       .  S
C234        C235   1.410       .  A
C234        C513   1.397   1_554  A
C235        C516   1.401       .  A
C235        C242   1.513       .  S
C236        C237   1.402       .  A
C236        C515   1.401       .  A
C236        H521   1.083       .  S
C237        C238   1.416       .  A
C238        C239   1.513       .  S
C239        F243   1.383       .  S
C239        F244   1.379       .  S
C239        F245   1.377       .  S
H241        C516   1.083       .  S
C242        F246   1.371       .  S
C242        F247   1.382       .  S
C242        F248   1.383       .  S
C249        C250   1.411       .  A
C249        C814   1.394       .  A
C249        H256   1.082       .  S
C250        C251   1.416       .  A
C251       C1092   1.421       .  A
C251        C258   1.513       .  S
C252        C253   1.413   1_556  A
C252       C1091   1.421   1_545  A
C252        H257   1.083       .  S
C253        C534   1.415   1_545  A
C254        C809   1.394       .  A
C254        C533   1.415   1_565  A
C254        C255   1.523       .  S
C255        F259   1.385       .  S
C255        F260   1.382   1_565  S
C255        F541   1.377   1_565  S
C258        F262   1.382       .  S
C258        F263   1.384       .  S
C258        F264   1.384       .  S
F261        C535   1.377   1_545  S
C265        C266   1.390       .  A
C265        C270   1.402       .  A
C265        H272   1.082       .  S
C266        C267   1.414       .  A
C267        C548   1.414       .  A
C267        C274   1.510       .  S
C268        C269   1.408   1_554  A
C268        C547   1.414   1_554  A
C268        H273   1.080       .  S
C269        C550   1.437       .  A
C270        C549   1.437       .  A
C270        C271   1.517       .  S
C271        F275   1.385       .  S
C271        F276   1.383       .  S
C271        F557   1.377       .  S
C274        F278   1.383       .  S
C274        F279   1.381       .  S
C274        F560   1.384       .  S
F277        C551   1.377       .  S
F280        C554   1.384       .  S
O281       Cr299   1.968       .  S
O281        C289   1.266       .  A
O282       Cr299   1.981       .  S
O282        C283   1.254       .  A
C283        O284   1.259       .  A
C283        C546   1.479       .  S
O284       Cr300   1.986       .  S
O285       Cr300   2.010       .  S
O285        C286   1.264       .  A
C286        O287   1.261       .  A
C286        C482   1.495       .  S
O287       Cr301   1.994       .  S
O288       Cr301   2.000       .  S
O288        C289   1.261       .  A
C289        C517   1.462       .  S
O290       Cr299   1.953       .  S
O290        C298   1.256       .  A
O291       Cr299   1.951       .  S
O291        C292   1.262       .  A
C292        O293   1.264       .  A
C292        C501   1.466       .  S
O293       Cr300   2.011       .  S
O294       Cr300   1.981       .  S
O294        C295   1.259       .  A
C295        O296   1.268       .  A
C295        C466   1.503       .  S
O296       Cr301   2.029       .  S
O297       Cr301   2.019       .  S
O297        C298   1.268       .  A
C298        C530   1.502       .  S
Cr299       O302   1.768       .  S
Cr300       O302   1.793       .  S
Cr301       O302   1.795       .  S
O303       Cr321   1.961       .  S
O303        C311   1.264       .  A
O304       Cr321   1.982       .  S
O304        C305   1.259       .  A
C305       O1426   1.264       .  A
C305        C450   1.505       .  S
O306       Cr322   2.002       .  S
O306       C1425   1.264       .  A
O307      Cr1442   2.011       .  S
O307        C308   1.265       .  A
C308        O309   1.263       .  A
C308        C389   1.490       .  S
O309       Cr323   1.991       .  S
O310       Cr323   2.005       .  S
O310        C311   1.261       .  A
C311        C418   1.463       .  S
O312      Cr1441   1.990       .  S
O312        C320   1.260       .  A
O313      Cr1441   1.957       .  S
O313        C314   1.264       .  A
C314        O315   1.261       .  A
C314        C405   1.449       .  S
O315       Cr322   1.994       .  S
O316       Cr322   1.981       .  S
O316        C317   1.258       .  A
C317        O318   1.263       .  A
C317        C370   1.496       .  S
O318      Cr1443   2.014       .  S
O319       Cr323   2.000   1_655  S
O319       C1440   1.263       .  A
C320       O1439   1.263       .  A
C320        C437   1.495       .  S
Cr321      O1432   1.990   1_455  S
Cr321      O1433   1.957   1_455  S
Cr321       O324   1.769       .  S
Cr322      O1427   2.011       .  S
Cr322      O1444   1.789       .  S
Cr323      O1438   2.014   1_455  S
Cr323       O324   1.790       .  S
O324      Cr1442   1.789       .  S
O325      Cr1463   1.959   1_455  S
O325        C333   1.264       .  A
O326      Cr1463   1.990   1_455  S
O326        C327   1.257       .  A
C327       O1448   1.260       .  A
C327        C453   1.500       .  S
O328       Cr344   2.002       .  S
O328       C1447   1.260       .  A
O329      Cr1464   2.010   1_455  S
O329        C330   1.264       .  A
C330        O331   1.259       .  A
C330        C485   1.490       .  S
O331       Cr345   1.983       .  S
O332       Cr345   2.005       .  S
O332        C333   1.264       .  A
C333        C514   1.459       .  S
O334       Cr343   1.982       .  S
O334        C342   1.258       .  A
O335       Cr343   1.954       .  S
O335        C336   1.262       .  A
C336        O337   1.266       .  A
C336        C498   1.459       .  S
O337       Cr344   2.007       .  S
O338       Cr344   1.993       .  S
O338        C339   1.262       .  A
C339        O340   1.264       .  A
C339        C469   1.495       .  S
O340      Cr1465   2.012       .  S
O341       Cr345   2.003   1_655  S
O341       C1462   1.262       .  A
C342       O1461   1.262       .  A
C342        C434   1.503       .  S
Cr343      O1445   1.959       .  S
Cr343      O1446   1.990       .  S
Cr343       O346   1.774       .  S
Cr344      O1449   2.010       .  S
Cr344       O346   1.792       .  S
Cr345      O1460   2.012   1_455  S
Cr345      O1466   1.792   1_455  S
O346      Cr1465   1.792       .  S
O347       Cr365   1.950       .  S
O347        C355   1.263       .  A
O348       Cr365   1.978       .  S
O348        C349   1.253       .  A
C349        O350   1.266       .  A
C349        C549   1.508       .  S
O350       Cr366   2.019       .  S
O351       Cr366   2.016       .  S
O351        C352   1.266       .  A
C352        O353   1.259       .  A
C352        C386   1.483       .  S
O353       Cr367   1.975       .  S
O354       Cr367   2.012       .  S
O354        C355   1.266       .  A
C355        C421   1.459       .  S
O356       Cr365   1.988       .  S
O356        C364   1.254       .  A
O357       Cr365   1.953       .  S
O357        C358   1.262       .  A
C358        O359   1.265       .  A
C358        C402   1.454       .  S
O359       Cr366   2.002       .  S
O360       Cr366   1.990       .  S
O360        C361   1.260       .  A
C361        O362   1.262       .  A
C361        C373   1.493       .  S
O362       Cr367   2.006       .  S
O363       Cr367   2.000       .  S
O363        C364   1.258       .  A
C364        C533   1.479       .  S
Cr365       O368   1.767       .  S
Cr366       O368   1.787       .  S
Cr367       O368   1.784       .  S
C369        C370   1.411       .  A
C369        C374   1.415       .  A
C369        H376   1.082       .  S
C370        C371   1.413       .  A
C371        C372   1.414       .  A
C371        C378   1.515       .  S
C372        C373   1.409       .  A
C372        H377   1.082       .  S
C373        C374   1.412       .  A
C374        C375   1.516       .  S
C375        F379   1.384       .  S
C375        F380   1.383       .  S
C375        F381   1.384       .  S
C378        F382   1.383       .  S
C378        F383   1.383       .  S
C378        F384   1.385       .  S
C385        C386   1.399       .  A
C385        C390   1.410       .  A
C385        H392   1.083       .  S
C386        C387   1.419       .  A
C387        C388   1.414       .  A
C387        C394   1.519       .  S
C388        C389   1.403       .  A
C388        H393   1.083       .  S
C389        C390   1.421       .  A
C390        C391   1.517       .  S
C391        F395   1.385       .  S
C391        F396   1.374       .  S
C391        F397   1.380       .  S
C394        F398   1.380       .  S
C394        F399   1.382       .  S
C394        F400   1.384       .  S
C401        C406   1.385       .  A
C401        H408   1.082       .  S
C402        C403   1.414       .  A
C403        C410   1.511       .  S
C404        C405   1.400   1_554  A
C405        C406   1.399       .  A
C406        C407   1.508       .  S
C407        F411   1.384       .  S
C407        F412   1.364       .  S
C407        F413   1.380       .  S
C410        F414   1.372       .  S
C410        F415   1.383       .  S
C410        F416   1.385       .  S
C417        C418   1.404   1_554  A
C418        C419   1.415       .  A
C419        C420   1.395       .  A
C419        C426   1.517       .  S
C420        H425   1.085       .  S
C421        C422   1.410       .  A
C422        C423   1.516       .  S
C423        F427   1.385       .  S
C423        F428   1.375       .  S
C423        F429   1.381       .  S
C426        F430   1.382       .  S
C426        F431   1.378       .  S
C426        F432   1.383       .  S
C433       C1274   1.413       .  A
C433        C998   1.409       .  A
C433        H440   1.082       .  S
C434       C1273   1.413       .  A
C434        C435   1.420       .  A
C435        C716   1.412       .  A
C435        C442   1.518       .  S
C436        C715   1.412   1_546  A
C436        C437   1.411       .  A
C436        H441   1.083   1_556  S
C437       C1558   1.417   1_545  A
C438        C993   1.409       .  A
C438       C1557   1.417   1_565  A
C438        C439   1.520       .  S
C439       F1003   1.385       .  S
C439        F444   1.384   1_565  S
C439        F445   1.383   1_565  S
C442        F446   1.383       .  S
C442        F447   1.384       .  S
C442       F1008   1.385       .  S
F443        C999   1.385       .  S
F448       C1002   1.385       .  S
C449       C1570   1.414   1_554  A
C450       C1569   1.414   1_556  A
C450        C451   1.420       .  A
C451        C452   1.413       .  A
C451        C458   1.518       .  S
C452        H457   1.082       .  S
C453       C1574   1.418       .  A
C454       C1573   1.418       .  A
C454        C455   1.521       .  S
C455        F459   1.385       .  S
C455        F460   1.384       .  S
C455        F461   1.383       .  S
C458        F462   1.383       .  S
C458        F463   1.382       .  S
C458        F464   1.382       .  S
C465        C466   1.410       .  A
C465        C470   1.413       .  A
C465        H472   1.080       .  S
C466        C467   1.419       .  A
C467        C468   1.418       .  A
C467        C474   1.517       .  S
C468        C469   1.409       .  A
C468        H473   1.082       .  S
C469        C470   1.412       .  A
C470        C471   1.516       .  S
C471        F475   1.385       .  S
C471        F476   1.383       .  S
C471        F477   1.383       .  S
C474        F478   1.382       .  S
C474        F479   1.383       .  S
C474        F480   1.385       .  S
C481        C482   1.397       .  A
C481        C486   1.411       .  A
C481        H488   1.084       .  S
C482        C483   1.424       .  A
C483        C484   1.412       .  A
C483        C490   1.513       .  S
C484        C485   1.397       .  A
C484        H489   1.083       .  S
C485        C486   1.426       .  A
C486        C487   1.513       .  S
C487        F491   1.383       .  S
C487        F492   1.378       .  S
C487        F493   1.379       .  S
C490        F494   1.370       .  S
C490        F495   1.380       .  S
C490        F496   1.385       .  S
C497        C502   1.401       .  A
C497        H504   1.084       .  S
C498        C499   1.410       .  A
C499        C506   1.510       .  S
C500        C501   1.401   1_554  A
C501        C502   1.412       .  A
C502        C503   1.513       .  S
C503        F507   1.384       .  S
C503        F508   1.372       .  S
C503        F509   1.382       .  S
C506        F510   1.376       .  S
C506        F511   1.383       .  S
C506        F512   1.385       .  S
C513        C518   1.395       .  A
C513        H520   1.085       .  S
C514        C515   1.410       .  A
C515        C522   1.513       .  S
C516        C517   1.402   1_554  A
C517        C518   1.416       .  A
C518        C519   1.513       .  S
C519        F523   1.383       .  S
C519        F524   1.379       .  S
C519        F525   1.377       .  S
C522        F526   1.371       .  S
C522        F527   1.382       .  S
C522        F528   1.383       .  S
C529        C530   1.411   1_554  A
C529       C1094   1.394       .  A
C529        H536   1.082       .  S
C530        C531   1.416       .  A
C531        C812   1.421       .  A
C531        C538   1.513       .  S
C532        C811   1.421   1_545  A
C532        C533   1.413       .  A
C532        H537   1.083       .  S
C534       C1089   1.394       .  A
C534        C535   1.523       .  S
C535        F539   1.385       .  S
C535        F540   1.382   1_565  S
C538        F542   1.382       .  S
C538        F543   1.384       .  S
C538        F544   1.384       .  S
C545        C546   1.390       .  A
C545        C550   1.402       .  A
C545        H552   1.082       .  S
C546        C547   1.414       .  A
C547        C554   1.510   1_556  S
C548        C549   1.408       .  A
C548        H553   1.080       .  S
C550        C551   1.517       .  S
C551        F555   1.385       .  S
C551        F556   1.383       .  S
C554        F558   1.383   1_554  S
C554        F559   1.381       .  S
O561       Cr579   1.968       .  S
O561        C569   1.266       .  A
O562       Cr579   1.981       .  S
O562        C563   1.254       .  A
C563        O564   1.259       .  A
C563        C826   1.479       .  S
O564       Cr580   1.986       .  S
O565       Cr580   2.010       .  S
O565        C566   1.264       .  A
C566        O567   1.261       .  A
C566        C762   1.495       .  S
O567       Cr581   1.994       .  S
O568       Cr581   2.000       .  S
O568        C569   1.261       .  A
C569        C797   1.462       .  S
O570       Cr579   1.953       .  S
O570        C578   1.256       .  A
O571       Cr579   1.951       .  S
O571        C572   1.262       .  A
C572        O573   1.264       .  A
C572        C781   1.466       .  S
O573       Cr580   2.011       .  S
O574       Cr580   1.981       .  S
O574        C575   1.259       .  A
C575        O576   1.268       .  A
C575        C746   1.503       .  S
O576       Cr581   2.029       .  S
O577       Cr581   2.019       .  S
O577        C578   1.268       .  A
C578        C810   1.502       .  S
Cr579       O582   1.768       .  S
Cr580       O582   1.793       .  S
Cr581       O582   1.795       .  S
O583       Cr601   1.961       .  S
O583        C591   1.264       .  A
O584       Cr601   1.982       .  S
O584        C585   1.259       .  A
C585       O1706   1.264       .  A
C585        C730   1.505       .  S
O586       Cr602   2.002       .  S
O586       C1705   1.264       .  A
O587      Cr1722   2.011       .  S
O587        C588   1.265       .  A
C588        O589   1.263       .  A
C588        C669   1.490       .  S
O589       Cr603   1.991       .  S
O590       Cr603   2.005       .  S
O590        C591   1.261       .  A
C591        C698   1.463       .  S
O592      Cr1721   1.990       .  S
O592        C600   1.260       .  A
O593      Cr1721   1.957       .  S
O593        C594   1.264       .  A
C594        O595   1.261       .  A
C594        C685   1.449       .  S
O595       Cr602   1.995       .  S
O596       Cr602   1.981       .  S
O596        C597   1.258       .  A
C597        O598   1.263       .  A
C597        C650   1.496       .  S
O598      Cr1723   2.014       .  S
O599       Cr603   2.000   1_655  S
O599       C1720   1.263       .  A
C600       O1719   1.263       .  A
C600        C717   1.495       .  S
Cr601      O1712   1.990   1_455  S
Cr601      O1713   1.957   1_455  S
Cr601       O604   1.769       .  S
Cr602      O1707   2.011       .  S
Cr602      O1724   1.789       .  S
Cr603      O1718   2.014   1_455  S
Cr603       O604   1.790       .  S
O604      Cr1722   1.789       .  S
O605      Cr1743   1.959   1_455  S
O605        C613   1.264       .  A
O606      Cr1743   1.990   1_455  S
O606        C607   1.257       .  A
C607       O1728   1.260       .  A
C607        C733   1.500       .  S
O608       Cr624   2.002       .  S
O608       C1727   1.260       .  A
O609      Cr1744   2.010   1_455  S
O609        C610   1.264       .  A
C610        O611   1.259       .  A
C610        C765   1.490       .  S
O611       Cr625   1.983       .  S
O612       Cr625   2.005       .  S
O612        C613   1.264       .  A
C613        C794   1.459       .  S
O614       Cr623   1.982       .  S
O614        C622   1.258       .  A
O615       Cr623   1.954       .  S
O615        C616   1.262       .  A
C616        O617   1.266       .  A
C616        C778   1.459       .  S
O617       Cr624   2.007       .  S
O618       Cr624   1.993       .  S
O618        C619   1.262       .  A
C619        O620   1.264       .  A
C619        C749   1.495       .  S
O620      Cr1745   2.012       .  S
O621       Cr625   2.003   1_655  S
O621       C1742   1.262       .  A
C622       O1741   1.262       .  A
C622        C714   1.503   1_554  S
Cr623      O1725   1.959       .  S
Cr623      O1726   1.989       .  S
Cr623       O626   1.774       .  S
Cr624      O1729   2.010       .  S
Cr624       O626   1.792       .  S
Cr625      O1740   2.012   1_455  S
Cr625      O1746   1.792   1_455  S
O626      Cr1745   1.792       .  S
O627       Cr645   1.950       .  S
O627        C635   1.263       .  A
O628       Cr645   1.978   1_556  S
O628        C629   1.253   1_556  A
C629        O630   1.266       .  A
C629        C829   1.508   1_554  S
O630       Cr646   2.018       .  S
O631       Cr646   2.016       .  S
O631        C632   1.266       .  A
C632        O633   1.259       .  A
C632        C666   1.483       .  S
O633       Cr647   1.975       .  S
O634       Cr647   2.012       .  S
O634        C635   1.266       .  A
C635        C701   1.459       .  S
O636       Cr645   1.988       .  S
O636        C644   1.254       .  A
O637       Cr645   1.953       .  S
O637        C638   1.262       .  A
C638        O639   1.265       .  A
C638        C682   1.454       .  S
O639       Cr646   2.002       .  S
O640       Cr646   1.990       .  S
O640        C641   1.260       .  A
C641        O642   1.262       .  A
C641        C653   1.493       .  S
O642       Cr647   2.006       .  S
O643       Cr647   2.000       .  S
O643        C644   1.258       .  A
C644        C813   1.479       .  S
Cr645       O648   1.767       .  S
Cr646       O648   1.787       .  S
Cr647       O648   1.784       .  S
C649        C650   1.411       .  A
C649        C654   1.415       .  A
C649        H656   1.082       .  S
C650        C651   1.413       .  A
C651        C652   1.414       .  A
C651        C658   1.515       .  S
C652        C653   1.409       .  A
C652        H657   1.082       .  S
C653        C654   1.412       .  A
C654        C655   1.516       .  S
C655        F659   1.384       .  S
C655        F660   1.383       .  S
C655        F661   1.384       .  S
C658        F662   1.383       .  S
C658        F663   1.383       .  S
C658        F664   1.385       .  S
C665        C666   1.399       .  A
C665        C670   1.410       .  A
C665        H672   1.083       .  S
C666        C667   1.419       .  A
C667        C668   1.414       .  A
C667        C674   1.519       .  S
C668        C669   1.403       .  A
C668        H673   1.083       .  S
C669        C670   1.421       .  A
C670        C671   1.517       .  S
C671        F675   1.385       .  S
C671        F676   1.374       .  S
C671        F677   1.380       .  S
C674        F678   1.380       .  S
C674        F679   1.382       .  S
C674        F680   1.384       .  S
C681        C962   1.399       .  A
C681        C686   1.385       .  A
C681        H688   1.082       .  S
C682        C961   1.399   1_554  A
C682        C683   1.414       .  A
C683        C964   1.401       .  A
C683        C690   1.511       .  S
C684        C963   1.401       .  A
C684        C685   1.400       .  A
C684        H969   1.083       .  S
C685        C686   1.399       .  A
C686        C687   1.508       .  S
C687        F691   1.384       .  S
C687        F692   1.364       .  S
C687        F693   1.380       .  S
H689        C964   1.083       .  S
C690        F694   1.372       .  S
C690        F695   1.383       .  S
C690        F696   1.385       .  S
C697        C698   1.404       .  A
C697        C982   1.401       .  A
C697        H984   1.084       .  S
C698        C699   1.415       .  A
C699        C700   1.395       .  A
C699        C706   1.517       .  S
C700        C981   1.400       .  A
C700        H705   1.085       .  S
C701        C980   1.400   1_554  A
C701        C702   1.410       .  A
C702        C977   1.401       .  A
C702        C703   1.516       .  S
C703        F707   1.385       .  S
C703        F708   1.375       .  S
C703        F709   1.381       .  S
H704        C977   1.084       .  S
C706        F710   1.382       .  S
C706        F711   1.378       .  S
C706        F712   1.383       .  S
C713       C2114   1.413       .  A
C713        H720   1.082       .  S
C714       C2113   1.413       .  A
C714        C715   1.420   1_556  A
C715        C722   1.518   1_565  S
C716        C717   1.411       .  A
C716        H721   1.083       .  S
C717       C1838   1.417       .  A
C718       C1837   1.417       .  A
C718        C719   1.520       .  S
C719        F724   1.384       .  S
C719        F725   1.383       .  S
C722        F726   1.383   1_545  S
C722        F727   1.384   1_545  S
C729       C1850   1.414       .  A
C729       C1014   1.411       .  A
C729       H1016   1.081       .  S
C730       C1849   1.414       .  A
C730        C731   1.420       .  A
C731        C732   1.413       .  A
C731        C738   1.518       .  S
C732       C1013   1.411       .  A
C732        H737   1.082       .  S
C733       C1012   1.411   1_554  A
C733       C1854   1.418       .  A
C734       C1009   1.411       .  A
C734       C1853   1.418       .  A
C734        C735   1.521       .  S
C735        F739   1.385       .  S
C735        F740   1.384       .  S
C735        F741   1.383       .  S
H736       C1009   1.081       .  S
C738        F742   1.383       .  S
C738        F743   1.382       .  S
C738        F744   1.382       .  S
C745        C746   1.410       .  A
C745        C750   1.413       .  A
C745        H752   1.080       .  S
C746        C747   1.419       .  A
C747        C748   1.418       .  A
C747        C754   1.517       .  S
C748        C749   1.409       .  A
C748        H753   1.082       .  S
C749        C750   1.412       .  A
C750        C751   1.516       .  S
C751        F755   1.385       .  S
C751        F756   1.383       .  S
C751        F757   1.383       .  S
C754        F758   1.382       .  S
C754        F759   1.383       .  S
C754        F760   1.385       .  S
C761        C762   1.397       .  A
C761        C766   1.411       .  A
C761        H768   1.084       .  S
C762        C763   1.424       .  A
C763        C764   1.412       .  A
C763        C770   1.513       .  S
C764        C765   1.397       .  A
C764        H769   1.083       .  S
C765        C766   1.426       .  A
C766        C767   1.513       .  S
C767        F771   1.383       .  S
C767        F772   1.378       .  S
C767        F773   1.379       .  S
C770        F774   1.370       .  S
C770        F775   1.380       .  S
C770        F776   1.385       .  S
C777       C1058   1.401       .  A
C777        C782   1.401       .  A
C777        H784   1.084       .  S
C778       C1057   1.401   1_554  A
C778        C779   1.410       .  A
C779       C1060   1.396       .  A
C779        C786   1.510       .  S
C780       C1059   1.396       .  A
C780        C781   1.401       .  A
C780       H1065   1.084       .  S
C781        C782   1.412       .  A
C782        C783   1.513       .  S
C783        F787   1.384       .  S
C783        F788   1.372       .  S
C783        F789   1.382       .  S
H785       C1060   1.084       .  S
C786        F790   1.376       .  S
C786        F791   1.383       .  S
C786        F792   1.385       .  S
C793       C1074   1.397       .  A
C793        C798   1.395       .  A
C793        H800   1.085       .  S
C794       C1073   1.397   1_554  A
C794        C795   1.410       .  A
C795       C1076   1.401       .  A
C795        C802   1.513       .  S
C796       C1075   1.401       .  A
C796        C797   1.402       .  A
C796       H1081   1.083       .  S
C797        C798   1.416       .  A
C798        C799   1.513       .  S
C799        F803   1.383       .  S
C799        F804   1.379       .  S
C799        F805   1.377       .  S
H801       C1076   1.083       .  S
C802        F806   1.371       .  S
C802        F807   1.382       .  S
C802        F808   1.383       .  S
C809        C810   1.411       .  A
C809        H816   1.082       .  S
C810        C811   1.416       .  A
C811        C818   1.513       .  S
C812        C813   1.413   1_556  A
C812        H817   1.083       .  S
C813       C1094   1.415       .  A
C814       C1093   1.415       .  A
C814        C815   1.523       .  S
C815        F819   1.385       .  S
C815        F820   1.382       .  S
C815       F1101   1.377       .  S
C818        F822   1.382       .  S
C818        F823   1.384       .  S
C818        F824   1.384   1_565  S
F821       C1095   1.377       .  S
C825        C826   1.390       .  A
C825        C830   1.402       .  A
C825        H832   1.082       .  S
C826        C827   1.414       .  A
C827       C1108   1.414       .  A
C827        C834   1.510       .  S
C828       C1107   1.414   1_554  A
C828        C829   1.408   1_554  A
C828        H833   1.080       .  S
C829       C1110   1.437       .  A
C830       C1109   1.437       .  A
C830        C831   1.517       .  S
C831        F835   1.385       .  S
C831        F836   1.383       .  S
C831       F1117   1.377       .  S
C834        F838   1.383       .  S
C834        F839   1.381       .  S
C834       F1120   1.384       .  S
F837       C1111   1.377       .  S
F840       C1114   1.384       .  S
O841       Cr859   1.968       .  S
O841        C849   1.266       .  A
O842       Cr859   1.981       .  S
O842        C843   1.254       .  A
C843        O844   1.259       .  A
C843       C1106   1.479       .  S
O844       Cr860   1.986       .  S
O845       Cr860   2.010       .  S
O845        C846   1.264       .  A
C846        O847   1.261       .  A
C846       C1042   1.495       .  S
O847       Cr861   1.994       .  S
O848       Cr861   2.000       .  S
O848        C849   1.261       .  A
C849       C1077   1.462       .  S
O850       Cr859   1.953       .  S
O850        C858   1.256       .  A
O851       Cr859   1.951       .  S
O851        C852   1.262       .  A
C852        O853   1.264       .  A
C852       C1061   1.466       .  S
O853       Cr860   2.011       .  S
O854       Cr860   1.981       .  S
O854        C855   1.259       .  A
C855        O856   1.268       .  A
C855       C1026   1.503       .  S
O856       Cr861   2.029       .  S
O857       Cr861   2.019       .  S
O857        C858   1.268       .  A
C858       C1090   1.502       .  S
Cr859       O862   1.768       .  S
Cr860       O862   1.793       .  S
Cr861       O862   1.795       .  S
O863       Cr881   1.961       .  S
O863        C871   1.264       .  A
O864       Cr881   1.982       .  S
O864        C865   1.259       .  A
C865       O1986   1.264       .  A
C865       C1010   1.505       .  S
O866       Cr882   2.002       .  S
O866       C1985   1.264       .  A
O867      Cr2002   2.011       .  S
O867        C868   1.265       .  A
C868        O869   1.263       .  A
C868        C949   1.490       .  S
O869       Cr883   1.991       .  S
O870       Cr883   2.005       .  S
O870        C871   1.261       .  A
C871        C978   1.463       .  S
O872      Cr2001   1.990       .  S
O872        C880   1.260       .  A
O873      Cr2001   1.957       .  S
O873        C874   1.264       .  A
C874        O875   1.261       .  A
C874        C965   1.449       .  S
O875       Cr882   1.994       .  S
O876       Cr882   1.981       .  S
O876        C877   1.258       .  A
C877        O878   1.263       .  A
C877        C930   1.496       .  S
O878      Cr2003   2.014       .  S
O879       Cr883   2.000   1_655  S
O879       C2000   1.263       .  A
C880       O1999   1.263       .  A
C880        C997   1.495       .  S
Cr881      O1992   1.990   1_455  S
Cr881      O1993   1.957   1_455  S
Cr881       O884   1.769       .  S
Cr882      O1987   2.011       .  S
Cr882      O2004   1.789       .  S
Cr883      O1998   2.014   1_455  S
Cr883       O884   1.790       .  S
O884      Cr2002   1.789       .  S
O885      Cr2023   1.959   1_455  S
O885        C893   1.264       .  A
O886      Cr2023   1.990   1_455  S
O886        C887   1.257       .  A
C887       O2008   1.260       .  A
C887       C1013   1.500       .  S
O888       Cr904   2.002       .  S
O888       C2007   1.260       .  A
O889      Cr2024   2.010   1_455  S
O889        C890   1.264       .  A
C890        O891   1.259       .  A
C890       C1045   1.490       .  S
O891       Cr905   1.983       .  S
O892       Cr905   2.005       .  S
O892        C893   1.264       .  A
C893       C1074   1.459       .  S
O894       Cr903   1.982       .  S
O894        C902   1.258       .  A
O895       Cr903   1.954       .  S
O895        C896   1.262       .  A
C896        O897   1.266       .  A
C896       C1058   1.459       .  S
O897       Cr904   2.007       .  S
O898       Cr904   1.993       .  S
O898        C899   1.262       .  A
C899        O900   1.264       .  A
C899       C1029   1.495       .  S
O900      Cr2025   2.012       .  S
O901       Cr905   2.003   1_655  S
O901       C2022   1.262       .  A
C902       O2021   1.262       .  A
C902        C994   1.503       .  S
Cr903      O2005   1.959       .  S
Cr903      O2006   1.989       .  S
Cr903       O906   1.774       .  S
Cr904      O2009   2.010       .  S
Cr904       O906   1.792       .  S
Cr905      O2020   2.012   1_455  S
Cr905      O2026   1.792   1_455  S
O906      Cr2025   1.792       .  S
O907       Cr925   1.950       .  S
O907        C915   1.263       .  A
O908       Cr925   1.978       .  S
O908        C909   1.253       .  A
C909        O910   1.266       .  A
C909       C1109   1.508       .  S
O910       Cr926   2.019       .  S
O911       Cr926   2.016       .  S
O911        C912   1.266       .  A
C912        O913   1.259       .  A
C912        C946   1.483       .  S
O913       Cr927   1.975       .  S
O914       Cr927   2.012       .  S
O914        C915   1.266       .  A
C915        C981   1.459       .  S
O916       Cr925   1.988       .  S
O916        C924   1.254       .  A
O917       Cr925   1.953       .  S
O917        C918   1.262       .  A
C918        O919   1.265       .  A
C918        C962   1.454       .  S
O919       Cr926   2.002       .  S
O920       Cr926   1.990       .  S
O920        C921   1.260       .  A
C921        O922   1.262       .  A
C921        C933   1.493       .  S
O922       Cr927   2.006       .  S
O923       Cr927   2.000       .  S
O923        C924   1.258       .  A
C924       C1093   1.479       .  S
Cr925       O928   1.767       .  S
Cr926       O928   1.787       .  S
Cr927       O928   1.784       .  S
C929        C930   1.411       .  A
C929        C934   1.415       .  A
C929        H936   1.082       .  S
C930        C931   1.413       .  A
C931        C932   1.414       .  A
C931        C938   1.515       .  S
C932        C933   1.409       .  A
C932        H937   1.082       .  S
C933        C934   1.412       .  A
C934        C935   1.516       .  S
C935        F939   1.384       .  S
C935        F940   1.383       .  S
C935        F941   1.384       .  S
C938        F942   1.383       .  S
C938        F943   1.383       .  S
C938        F944   1.385       .  S
C945        C946   1.399       .  A
C945        C950   1.410       .  A
C945        H952   1.083       .  S
C946        C947   1.419       .  A
C947        C948   1.414       .  A
C947        C954   1.519       .  S
C948        C949   1.403       .  A
C948        H953   1.083       .  S
C949        C950   1.421       .  A
C950        C951   1.517       .  S
C951        F955   1.385       .  S
C951        F956   1.374       .  S
C951        F957   1.380       .  S
C954        F958   1.380       .  S
C954        F959   1.382       .  S
C954        F960   1.384       .  S
C961        C966   1.385       .  A
C961        H968   1.082       .  S
C962        C963   1.414       .  A
C963        C970   1.511       .  S
C964        C965   1.400   1_554  A
C965        C966   1.399       .  A
C966        C967   1.508       .  S
C967        F971   1.384       .  S
C967        F972   1.364       .  S
C967        F973   1.380       .  S
C970        F974   1.372       .  S
C970        F975   1.383       .  S
C970        F976   1.385       .  S
C977        C978   1.404   1_554  A
C978        C979   1.415       .  A
C979        C980   1.395       .  A
C979        C986   1.517       .  S
C980        H985   1.085       .  S
C981        C982   1.410       .  A
C982        C983   1.516       .  S
C983        F987   1.385       .  S
C983        F988   1.375       .  S
C983        F989   1.381       .  S
C986        F990   1.382       .  S
C986        F991   1.378       .  S
C986        F992   1.383       .  S
C993       C1834   1.413       .  A
C993       H1000   1.082       .  S
C994       C1833   1.413       .  A
C994        C995   1.420       .  A
C995       C1002   1.518   1_565  S
C996        C997   1.411       .  A
C996       H1001   1.083   1_556  S
C997       C2118   1.417       .  A
C998       C2117   1.417       .  A
C998        C999   1.520       .  S
C999       F1004   1.384       .  S
C999       F1005   1.383       .  S
C1002      F1006   1.383   1_545  S
C1002      F1007   1.384   1_545  S
C1009      C2130   1.414   1_554  A
C1010      C2129   1.414   1_556  A
C1010      C1011   1.420       .  A
C1011      C1012   1.413       .  A
C1011      C1018   1.518       .  S
C1012      H1017   1.082       .  S
C1013      C2134   1.418       .  A
C1014      C2133   1.418       .  A
C1014      C1015   1.521       .  S
C1015      F1019   1.385       .  S
C1015      F1020   1.384       .  S
C1015      F1021   1.383       .  S
C1018      F1022   1.383       .  S
C1018      F1023   1.382       .  S
C1018      F1024   1.382       .  S
C1025      C1026   1.410       .  A
C1025      C1030   1.413       .  A
C1025      H1032   1.080       .  S
C1026      C1027   1.419       .  A
C1027      C1028   1.418       .  A
C1027      C1034   1.517       .  S
C1028      C1029   1.409       .  A
C1028      H1033   1.082       .  S
C1029      C1030   1.412       .  A
C1030      C1031   1.516       .  S
C1031      F1035   1.385       .  S
C1031      F1036   1.383       .  S
C1031      F1037   1.383       .  S
C1034      F1038   1.382       .  S
C1034      F1039   1.383       .  S
C1034      F1040   1.385       .  S
C1041      C1042   1.397       .  A
C1041      C1046   1.411       .  A
C1041      H1048   1.084       .  S
C1042      C1043   1.424       .  A
C1043      C1044   1.412       .  A
C1043      C1050   1.513       .  S
C1044      C1045   1.397       .  A
C1044      H1049   1.083       .  S
C1045      C1046   1.426       .  A
C1046      C1047   1.513       .  S
C1047      F1051   1.383       .  S
C1047      F1052   1.378       .  S
C1047      F1053   1.379       .  S
C1050      F1054   1.370       .  S
C1050      F1055   1.380       .  S
C1050      F1056   1.385       .  S
C1057      C1062   1.401       .  A
C1057      H1064   1.084       .  S
C1058      C1059   1.410       .  A
C1059      C1066   1.510       .  S
C1060      C1061   1.401   1_554  A
C1061      C1062   1.412       .  A
C1062      C1063   1.513       .  S
C1063      F1067   1.384       .  S
C1063      F1068   1.372       .  S
C1063      F1069   1.382       .  S
C1066      F1070   1.376       .  S
C1066      F1071   1.383       .  S
C1066      F1072   1.385       .  S
C1073      C1078   1.395       .  A
C1073      H1080   1.085       .  S
C1074      C1075   1.410       .  A
C1075      C1082   1.513       .  S
C1076      C1077   1.402   1_554  A
C1077      C1078   1.416       .  A
C1078      C1079   1.513       .  S
C1079      F1083   1.383       .  S
C1079      F1084   1.379       .  S
C1079      F1085   1.377       .  S
C1082      F1086   1.371       .  S
C1082      F1087   1.382       .  S
C1082      F1088   1.383       .  S
C1089      C1090   1.411   1_554  A
C1089      H1096   1.082       .  S
C1090      C1091   1.416       .  A
C1091      C1098   1.513       .  S
C1092      C1093   1.413       .  A
C1092      H1097   1.083       .  S
C1094      C1095   1.523       .  S
C1095      F1099   1.385       .  S
C1095      F1100   1.382       .  S
C1098      F1102   1.382       .  S
C1098      F1103   1.384       .  S
C1098      F1104   1.384   1_565  S
C1105      C1106   1.390       .  A
C1105      C1110   1.402       .  A
C1105      H1112   1.082       .  S
C1106      C1107   1.414       .  A
C1107      C1114   1.510   1_556  S
C1108      C1109   1.408       .  A
C1108      H1113   1.080       .  S
C1110      C1111   1.517       .  S
C1111      F1115   1.385       .  S
C1111      F1116   1.383       .  S
C1114      F1118   1.383   1_554  S
C1114      F1119   1.381       .  S
O1121     Cr1139   1.968       .  S
O1121      C1129   1.266       .  A
O1122     Cr1139   1.981       .  S
O1122      C1123   1.254       .  A
C1123      O1124   1.259       .  A
C1123      C1386   1.479       .  S
O1124     Cr1140   1.986       .  S
O1125     Cr1140   2.010       .  S
O1125      C1126   1.264       .  A
C1126      O1127   1.261       .  A
C1126      C1322   1.495       .  S
O1127     Cr1141   1.994       .  S
O1128     Cr1141   2.000       .  S
O1128      C1129   1.261       .  A
C1129      C1357   1.462       .  S
O1130     Cr1139   1.953       .  S
O1130      C1138   1.256       .  A
O1131     Cr1139   1.951       .  S
O1131      C1132   1.262       .  A
C1132      O1133   1.264       .  A
C1132      C1341   1.466       .  S
O1133     Cr1140   2.011       .  S
O1134     Cr1140   1.981       .  S
O1134      C1135   1.259       .  A
C1135      O1136   1.268       .  A
C1135      C1306   1.503       .  S
O1136     Cr1141   2.029       .  S
O1137     Cr1141   2.019       .  S
O1137      C1138   1.268       .  A
C1138      C1370   1.502       .  S
Cr1139     O1142   1.768       .  S
Cr1140     O1142   1.793       .  S
Cr1141     O1142   1.795       .  S
O1143     Cr1161   1.961       .  S
O1143      C1151   1.264       .  A
O1144     Cr1161   1.982       .  S
O1144      C1145   1.259       .  A
C1145      C1290   1.505       .  S
O1146     Cr1162   2.002       .  S
O1147      C1148   1.265       .  A
C1148      O1149   1.263       .  A
C1148      C1229   1.490       .  S
O1149     Cr1163   1.991       .  S
O1150     Cr1163   2.005       .  S
O1150      C1151   1.261       .  A
C1151      C1258   1.463       .  S
O1152      C1160   1.260       .  A
O1153      C1154   1.264       .  A
C1154      O1155   1.261       .  A
C1154      C1245   1.449       .  S
O1155     Cr1162   1.995   1_655  S
O1156     Cr1162   1.981   1_655  S
O1156      C1157   1.258       .  A
C1157      O1158   1.263       .  A
C1157      C1210   1.496       .  S
O1159     Cr1163   2.000       .  S
C1160      C1277   1.495       .  S
Cr1161     O1164   1.769       .  S
Cr1163     O1164   1.790       .  S
O1165      C1173   1.264       .  A
O1166      C1167   1.257       .  A
C1167      C1293   1.500       .  S
O1168     Cr1184   2.002   1_455  S
O1169      C1170   1.264       .  A
C1170      O1171   1.259       .  A
C1170      C1325   1.490       .  S
O1171     Cr1185   1.983       .  S
O1172     Cr1185   2.005       .  S
O1172      C1173   1.264       .  A
C1173      C1354   1.459       .  S
O1174     Cr1183   1.982       .  S
O1174      C1182   1.258       .  A
O1175     Cr1183   1.954       .  S
O1175      C1176   1.262       .  A
C1176      O1177   1.266       .  A
C1176      C1338   1.459       .  S
O1177     Cr1184   2.007       .  S
O1178     Cr1184   1.993       .  S
O1178      C1179   1.262       .  A
C1179      O1180   1.264       .  A
C1179      C1309   1.495       .  S
O1181     Cr1185   2.003       .  S
C1182      C1274   1.503   1_554  S
Cr1183     O1186   1.774       .  S
Cr1184     O1186   1.792       .  S
O1187     Cr1205   1.950       .  S
O1187      C1195   1.263       .  A
O1188     Cr1205   1.978   1_556  S
O1188      C1189   1.253   1_556  A
C1189      O1190   1.266       .  A
C1189      C1389   1.508   1_554  S
O1190     Cr1206   2.018       .  S
O1191     Cr1206   2.016       .  S
O1191      C1192   1.266       .  A
C1192      O1193   1.259       .  A
C1192      C1226   1.483       .  S
O1193     Cr1207   1.975       .  S
O1194     Cr1207   2.012       .  S
O1194      C1195   1.266       .  A
C1195      C1261   1.459       .  S
O1196     Cr1205   1.988       .  S
O1196      C1204   1.254       .  A
O1197     Cr1205   1.953       .  S
O1197      C1198   1.262       .  A
C1198      O1199   1.265       .  A
C1198      C1242   1.454       .  S
O1199     Cr1206   2.002       .  S
O1200     Cr1206   1.990       .  S
O1200      C1201   1.260       .  A
C1201      O1202   1.262       .  A
C1201      C1213   1.493       .  S
O1202     Cr1207   2.006       .  S
O1203     Cr1207   2.000       .  S
O1203      C1204   1.258       .  A
C1204      C1373   1.479       .  S
Cr1205     O1208   1.767       .  S
Cr1206     O1208   1.787       .  S
Cr1207     O1208   1.784       .  S
C1209      C1210   1.411       .  A
C1209      C1214   1.415       .  A
C1209      H1216   1.082       .  S
C1210      C1211   1.413       .  A
C1211      C1212   1.414       .  A
C1211      C1218   1.515       .  S
C1212      C1213   1.409       .  A
C1212      H1217   1.082       .  S
C1213      C1214   1.412       .  A
C1214      C1215   1.516       .  S
C1215      F1219   1.384       .  S
C1215      F1220   1.383       .  S
C1215      F1221   1.384       .  S
C1218      F1222   1.383       .  S
C1218      F1223   1.383       .  S
C1218      F1224   1.385       .  S
C1225      C1226   1.399       .  A
C1225      C1230   1.410       .  A
C1225      H1232   1.083       .  S
C1226      C1227   1.419       .  A
C1227      C1228   1.414       .  A
C1227      C1234   1.519       .  S
C1228      C1229   1.403       .  A
C1228      H1233   1.083       .  S
C1229      C1230   1.421       .  A
C1230      C1231   1.517       .  S
C1231      F1235   1.385       .  S
C1231      F1236   1.374       .  S
C1231      F1237   1.380       .  S
C1234      F1238   1.380       .  S
C1234      F1239   1.382       .  S
C1234      F1240   1.384       .  S
C1241      C1522   1.399       .  A
C1241      C1246   1.385       .  A
C1241      H1248   1.082       .  S
C1242      C1521   1.399   1_554  A
C1242      C1243   1.414       .  A
C1243      C1524   1.401       .  A
C1243      C1250   1.511       .  S
C1244      C1523   1.401       .  A
C1244      C1245   1.400       .  A
C1244      H1529   1.083       .  S
C1245      C1246   1.399       .  A
C1246      C1247   1.508       .  S
C1247      F1251   1.384       .  S
C1247      F1252   1.364       .  S
C1247      F1253   1.380       .  S
H1249      C1524   1.083       .  S
C1250      F1254   1.372       .  S
C1250      F1255   1.383       .  S
C1250      F1256   1.385       .  S
C1257      C1258   1.404       .  A
C1257      C1542   1.401       .  A
C1257      H1544   1.084       .  S
C1258      C1259   1.415       .  A
C1259      C1260   1.395       .  A
C1259      C1266   1.517       .  S
C1260      C1541   1.400       .  A
C1260      H1265   1.085       .  S
C1261      C1540   1.400   1_554  A
C1261      C1262   1.410       .  A
C1262      C1537   1.401       .  A
C1262      C1263   1.515       .  S
C1263      F1267   1.385       .  S
C1263      F1268   1.375       .  S
C1263      F1269   1.381       .  S
H1264      C1537   1.084       .  S
C1266      F1270   1.382       .  S
C1266      F1271   1.378       .  S
C1266      F1272   1.383       .  S
C1273      C1838   1.409       .  A
C1273      H1280   1.082       .  S
C1274      C1275   1.420   1_556  A
C1275      C2116   1.412   1_554  A
C1275      C1282   1.518       .  S
C1276      C2115   1.412   1_545  A
C1276      C1277   1.411       .  A
C1276      H1281   1.083       .  S
C1278      C1833   1.409       .  A
C1278      C1279   1.520       .  S
C1279      F1843   1.385       .  S
C1279      F1284   1.384   1_565  S
C1279      F1285   1.383   1_565  S
C1282      F1286   1.383       .  S
C1282      F1287   1.384       .  S
C1282      F1848   1.385       .  S
F1283      C1839   1.385       .  S
F1288      C1842   1.385       .  S
C1289      C1574   1.411       .  A
C1289      H1576   1.081       .  S
C1290      C1291   1.420       .  A
C1291      C1292   1.413       .  A
C1291      C1298   1.518       .  S
C1292      C1573   1.411       .  A
C1292      H1297   1.082       .  S
C1293      C1572   1.411   1_554  A
C1294      C1569   1.411       .  A
C1294      C1295   1.521       .  S
C1295      F1299   1.385       .  S
C1295      F1300   1.384       .  S
C1295      F1301   1.383       .  S
H1296      C1569   1.081       .  S
C1298      F1302   1.383       .  S
C1298      F1303   1.382       .  S
C1298      F1304   1.382       .  S
C1305      C1306   1.410       .  A
C1305      C1310   1.413       .  A
C1305      H1312   1.080       .  S
C1306      C1307   1.419       .  A
C1307      C1308   1.418       .  A
C1307      C1314   1.517       .  S
C1308      C1309   1.409       .  A
C1308      H1313   1.082       .  S
C1309      C1310   1.412       .  A
C1310      C1311   1.516       .  S
C1311      F1315   1.385       .  S
C1311      F1316   1.383       .  S
C1311      F1317   1.383       .  S
C1314      F1318   1.382       .  S
C1314      F1319   1.383       .  S
C1314      F1320   1.385       .  S
C1321      C1322   1.397       .  A
C1321      C1326   1.411       .  A
C1321      H1328   1.084       .  S
C1322      C1323   1.424       .  A
C1323      C1324   1.412       .  A
C1323      C1330   1.513       .  S
C1324      C1325   1.397       .  A
C1324      H1329   1.083       .  S
C1325      C1326   1.426       .  A
C1326      C1327   1.514       .  S
C1327      F1331   1.383       .  S
C1327      F1332   1.378       .  S
C1327      F1333   1.379       .  S
C1330      F1334   1.370       .  S
C1330      F1335   1.380       .  S
C1330      F1336   1.385       .  S
C1337      C1618   1.401       .  A
C1337      C1342   1.401       .  A
C1337      H1344   1.084       .  S
C1338      C1617   1.401   1_554  A
C1338      C1339   1.410       .  A
C1339      C1620   1.396       .  A
C1339      C1346   1.510       .  S
C1340      C1619   1.396       .  A
C1340      C1341   1.401       .  A
C1340      H1625   1.084       .  S
C1341      C1342   1.412       .  A
C1342      C1343   1.513       .  S
C1343      F1347   1.384       .  S
C1343      F1348   1.372       .  S
C1343      F1349   1.382       .  S
H1345      C1620   1.084       .  S
C1346      F1350   1.376       .  S
C1346      F1351   1.383       .  S
C1346      F1352   1.385       .  S
C1353      C1634   1.397       .  A
C1353      C1358   1.395       .  A
C1353      H1360   1.085       .  S
C1354      C1633   1.397   1_554  A
C1354      C1355   1.410       .  A
C1355      C1636   1.401       .  A
C1355      C1362   1.513       .  S
C1356      C1635   1.401       .  A
C1356      C1357   1.402       .  A
C1356      H1641   1.083       .  S
C1357      C1358   1.416       .  A
C1358      C1359   1.513       .  S
C1359      F1363   1.383       .  S
C1359      F1364   1.379       .  S
C1359      F1365   1.377       .  S
H1361      C1636   1.083       .  S
C1362      F1366   1.371       .  S
C1362      F1367   1.382       .  S
C1362      F1368   1.383       .  S
C1369      C1370   1.411       .  A
C1369      C1934   1.394       .  A
C1369      H1376   1.082       .  S
C1370      C1371   1.416       .  A
C1371      C2212   1.421       .  A
C1371      C1378   1.513       .  S
C1372      C2211   1.421   1_545  A
C1372      C1373   1.413   1_556  A
C1372      H1377   1.083       .  S
C1373      C1654   1.415   1_545  A
C1374      C1929   1.394       .  A
C1374      C1653   1.415   1_565  A
C1374      C1375   1.523       .  S
C1375      F1379   1.385       .  S
C1375      F1380   1.382   1_565  S
C1375      F1661   1.377   1_565  S
C1378      F1382   1.382       .  S
C1378      F1383   1.384       .  S
C1378      F1384   1.384       .  S
F1381      C1655   1.377   1_545  S
C1385      C1386   1.390       .  A
C1385      C1390   1.402       .  A
C1385      H1392   1.082       .  S
C1386      C1387   1.414       .  A
C1387      C1668   1.414       .  A
C1387      C1394   1.510       .  S
C1388      C1667   1.414   1_554  A
C1388      C1389   1.408   1_554  A
C1388      H1393   1.080       .  S
C1389      C1670   1.437       .  A
C1390      C1669   1.437       .  A
C1390      C1391   1.517       .  S
C1391      F1395   1.385       .  S
C1391      F1396   1.383       .  S
C1391      F1677   1.377       .  S
C1394      F1398   1.383       .  S
C1394      F1399   1.381       .  S
C1394      F1680   1.384       .  S
F1397      C1671   1.377       .  S
F1400      C1674   1.384       .  S
O1401     Cr1419   1.968       .  S
O1401      C1409   1.266       .  A
O1402     Cr1419   1.981       .  S
O1402      C1403   1.254       .  A
C1403      O1404   1.259       .  A
C1403      C1666   1.479       .  S
O1404     Cr1420   1.986       .  S
O1405     Cr1420   2.010       .  S
O1405      C1406   1.264       .  A
C1406      O1407   1.261       .  A
C1406      C1602   1.495       .  S
O1407     Cr1421   1.994       .  S
O1408     Cr1421   2.000       .  S
O1408      C1409   1.261       .  A
C1409      C1637   1.462       .  S
O1410     Cr1419   1.953       .  S
O1410      C1418   1.256       .  A
O1411     Cr1419   1.951       .  S
O1411      C1412   1.262       .  A
C1412      O1413   1.264       .  A
C1412      C1621   1.466       .  S
O1413     Cr1420   2.011       .  S
O1414     Cr1420   1.981       .  S
O1414      C1415   1.259       .  A
C1415      O1416   1.268       .  A
C1415      C1586   1.503       .  S
O1416     Cr1421   2.029       .  S
O1417     Cr1421   2.019       .  S
O1417      C1418   1.268       .  A
C1418      C1650   1.502       .  S
Cr1419     O1422   1.768       .  S
Cr1420     O1422   1.793       .  S
Cr1421     O1422   1.795       .  S
O1423     Cr1441   1.961       .  S
O1423      C1431   1.264       .  A
O1424     Cr1441   1.982       .  S
O1424      C1425   1.259       .  A
C1425      C1570   1.505       .  S
O1426     Cr1442   2.002       .  S
O1427      C1428   1.265       .  A
C1428      O1429   1.263       .  A
C1428      C1509   1.490       .  S
O1429     Cr1443   1.991       .  S
O1430     Cr1443   2.005       .  S
O1430      C1431   1.261       .  A
C1431      C1538   1.463       .  S
O1432      C1440   1.260       .  A
O1433      C1434   1.264       .  A
C1434      O1435   1.261       .  A
C1434      C1525   1.449       .  S
O1435     Cr1442   1.994   1_655  S
O1436     Cr1442   1.981   1_655  S
O1436      C1437   1.258       .  A
C1437      O1438   1.263       .  A
C1437      C1490   1.496       .  S
O1439     Cr1443   2.000       .  S
C1440      C1557   1.495       .  S
Cr1441     O1444   1.769       .  S
Cr1443     O1444   1.790       .  S
O1445      C1453   1.264       .  A
O1446      C1447   1.257       .  A
C1447      C1573   1.500       .  S
O1448     Cr1464   2.002   1_455  S
O1449      C1450   1.264       .  A
C1450      O1451   1.259       .  A
C1450      C1605   1.490       .  S
O1451     Cr1465   1.983       .  S
O1452     Cr1465   2.005       .  S
O1452      C1453   1.264       .  A
C1453      C1634   1.459       .  S
O1454     Cr1463   1.982       .  S
O1454      C1462   1.258       .  A
O1455     Cr1463   1.954       .  S
O1455      C1456   1.262       .  A
C1456      O1457   1.266       .  A
C1456      C1618   1.459       .  S
O1457     Cr1464   2.007       .  S
O1458     Cr1464   1.993       .  S
O1458      C1459   1.262       .  A
C1459      O1460   1.264       .  A
C1459      C1589   1.495       .  S
O1461     Cr1465   2.003       .  S
C1462      C1554   1.503       .  S
Cr1463     O1466   1.774       .  S
Cr1464     O1466   1.792       .  S
O1467     Cr1485   1.950       .  S
O1467      C1475   1.263       .  A
O1468     Cr1485   1.978       .  S
O1468      C1469   1.253       .  A
C1469      O1470   1.266       .  A
C1469      C1669   1.508       .  S
O1470     Cr1486   2.019       .  S
O1471     Cr1486   2.016       .  S
O1471      C1472   1.266       .  A
C1472      O1473   1.259       .  A
C1472      C1506   1.483       .  S
O1473     Cr1487   1.975       .  S
O1474     Cr1487   2.012       .  S
O1474      C1475   1.266       .  A
C1475      C1541   1.459       .  S
O1476     Cr1485   1.988       .  S
O1476      C1484   1.254       .  A
O1477     Cr1485   1.953       .  S
O1477      C1478   1.262       .  A
C1478      O1479   1.265       .  A
C1478      C1522   1.454       .  S
O1479     Cr1486   2.002       .  S
O1480     Cr1486   1.990       .  S
O1480      C1481   1.260       .  A
C1481      O1482   1.262       .  A
C1481      C1493   1.493       .  S
O1482     Cr1487   2.006       .  S
O1483     Cr1487   2.000       .  S
O1483      C1484   1.258       .  A
C1484      C1653   1.479       .  S
Cr1485     O1488   1.767       .  S
Cr1486     O1488   1.787       .  S
Cr1487     O1488   1.784       .  S
C1489      C1490   1.411       .  A
C1489      C1494   1.415       .  A
C1489      H1496   1.082       .  S
C1490      C1491   1.413       .  A
C1491      C1492   1.414       .  A
C1491      C1498   1.515       .  S
C1492      C1493   1.409       .  A
C1492      H1497   1.082       .  S
C1493      C1494   1.412       .  A
C1494      C1495   1.516       .  S
C1495      F1499   1.384       .  S
C1495      F1500   1.383       .  S
C1495      F1501   1.384       .  S
C1498      F1502   1.383       .  S
C1498      F1503   1.383       .  S
C1498      F1504   1.385       .  S
C1505      C1506   1.399       .  A
C1505      C1510   1.410       .  A
C1505      H1512   1.083       .  S
C1506      C1507   1.419       .  A
C1507      C1508   1.414       .  A
C1507      C1514   1.519       .  S
C1508      C1509   1.403       .  A
C1508      H1513   1.083       .  S
C1509      C1510   1.421       .  A
C1510      C1511   1.517       .  S
C1511      F1515   1.385       .  S
C1511      F1516   1.374       .  S
C1511      F1517   1.380       .  S
C1514      F1518   1.380       .  S
C1514      F1519   1.382       .  S
C1514      F1520   1.384       .  S
C1521      C1526   1.385       .  A
C1521      H1528   1.082       .  S
C1522      C1523   1.414       .  A
C1523      C1530   1.511       .  S
C1524      C1525   1.400   1_554  A
C1525      C1526   1.399       .  A
C1526      C1527   1.508       .  S
C1527      F1531   1.384       .  S
C1527      F1532   1.364       .  S
C1527      F1533   1.380       .  S
C1530      F1534   1.372       .  S
C1530      F1535   1.383       .  S
C1530      F1536   1.385       .  S
C1537      C1538   1.404   1_554  A
C1538      C1539   1.415       .  A
C1539      C1540   1.395       .  A
C1539      C1546   1.517       .  S
C1540      H1545   1.085       .  S
C1541      C1542   1.410       .  A
C1542      C1543   1.516       .  S
C1543      F1547   1.385       .  S
C1543      F1548   1.375       .  S
C1543      F1549   1.381       .  S
C1546      F1550   1.382       .  S
C1546      F1551   1.378       .  S
C1546      F1552   1.383       .  S
C1553      C2118   1.409       .  A
C1553      H1560   1.082       .  S
C1554      C1555   1.420       .  A
C1555      C1836   1.412       .  A
C1555      C1562   1.518       .  S
C1556      C1835   1.412   1_546  A
C1556      C1557   1.411       .  A
C1556      H1561   1.083   1_556  S
C1558      C2113   1.409       .  A
C1558      C1559   1.520       .  S
C1559      F2123   1.385       .  S
C1559      F1564   1.384   1_565  S
C1559      F1565   1.383   1_565  S
C1562      F1566   1.383       .  S
C1562      F1567   1.384       .  S
C1562      F2128   1.385       .  S
F1563      C2119   1.385       .  S
F1568      C2122   1.385       .  S
C1570      C1571   1.420       .  A
C1571      C1572   1.413       .  A
C1571      C1578   1.518       .  S
C1572      H1577   1.082       .  S
C1574      C1575   1.521       .  S
C1575      F1579   1.385       .  S
C1575      F1580   1.384       .  S
C1575      F1581   1.383       .  S
C1578      F1582   1.383       .  S
C1578      F1583   1.382       .  S
C1578      F1584   1.382       .  S
C1585      C1586   1.410       .  A
C1585      C1590   1.413       .  A
C1585      H1592   1.080       .  S
C1586      C1587   1.419       .  A
C1587      C1588   1.418       .  A
C1587      C1594   1.517       .  S
C1588      C1589   1.409       .  A
C1588      H1593   1.082       .  S
C1589      C1590   1.412       .  A
C1590      C1591   1.516       .  S
C1591      F1595   1.385       .  S
C1591      F1596   1.383       .  S
C1591      F1597   1.383       .  S
C1594      F1598   1.382       .  S
C1594      F1599   1.383       .  S
C1594      F1600   1.385       .  S
C1601      C1602   1.397       .  A
C1601      C1606   1.411       .  A
C1601      H1608   1.084       .  S
C1602      C1603   1.424       .  A
C1603      C1604   1.412       .  A
C1603      C1610   1.513       .  S
C1604      C1605   1.397       .  A
C1604      H1609   1.083       .  S
C1605      C1606   1.426       .  A
C1606      C1607   1.513       .  S
C1607      F1611   1.383       .  S
C1607      F1612   1.378       .  S
C1607      F1613   1.379       .  S
C1610      F1614   1.370       .  S
C1610      F1615   1.380       .  S
C1610      F1616   1.385       .  S
C1617      C1622   1.401       .  A
C1617      H1624   1.084       .  S
C1618      C1619   1.410       .  A
C1619      C1626   1.510       .  S
C1620      C1621   1.401   1_554  A
C1621      C1622   1.412       .  A
C1622      C1623   1.513       .  S
C1623      F1627   1.384       .  S
C1623      F1628   1.372       .  S
C1623      F1629   1.382       .  S
C1626      F1630   1.376       .  S
C1626      F1631   1.383       .  S
C1626      F1632   1.385       .  S
C1633      C1638   1.395       .  A
C1633      H1640   1.085       .  S
C1634      C1635   1.410       .  A
C1635      C1642   1.513       .  S
C1636      C1637   1.402   1_554  A
C1637      C1638   1.416       .  A
C1638      C1639   1.513       .  S
C1639      F1643   1.383       .  S
C1639      F1644   1.379       .  S
C1639      F1645   1.377       .  S
C1642      F1646   1.371       .  S
C1642      F1647   1.382       .  S
C1642      F1648   1.383       .  S
C1649      C1650   1.411   1_554  A
C1649      C2214   1.394       .  A
C1649      H1656   1.082       .  S
C1650      C1651   1.416       .  A
C1651      C1932   1.421       .  A
C1651      C1658   1.513       .  S
C1652      C1931   1.421   1_545  A
C1652      C1653   1.413       .  A
C1652      H1657   1.083       .  S
C1654      C2209   1.394       .  A
C1654      C1655   1.523       .  S
C1655      F1659   1.385       .  S
C1655      F1660   1.382   1_565  S
C1658      F1662   1.382       .  S
C1658      F1663   1.384       .  S
C1658      F1664   1.384       .  S
C1665      C1666   1.390       .  A
C1665      C1670   1.402       .  A
C1665      H1672   1.082       .  S
C1666      C1667   1.414       .  A
C1667      C1674   1.510   1_556  S
C1668      C1669   1.408       .  A
C1668      H1673   1.080       .  S
C1670      C1671   1.517       .  S
C1671      F1675   1.385       .  S
C1671      F1676   1.383       .  S
C1674      F1678   1.383   1_554  S
C1674      F1679   1.381       .  S
O1681     Cr1699   1.968       .  S
O1681      C1689   1.266       .  A
O1682     Cr1699   1.981       .  S
O1682      C1683   1.254       .  A
C1683      O1684   1.259       .  A
C1683      C1946   1.479       .  S
O1684     Cr1700   1.986       .  S
O1685     Cr1700   2.010       .  S
O1685      C1686   1.264       .  A
C1686      O1687   1.261       .  A
C1686      C1882   1.495       .  S
O1687     Cr1701   1.994       .  S
O1688     Cr1701   2.000       .  S
O1688      C1689   1.261       .  A
C1689      C1917   1.462       .  S
O1690     Cr1699   1.953       .  S
O1690      C1698   1.256       .  A
O1691     Cr1699   1.951       .  S
O1691      C1692   1.262       .  A
C1692      O1693   1.264       .  A
C1692      C1901   1.466       .  S
O1693     Cr1700   2.011       .  S
O1694     Cr1700   1.981       .  S
O1694      C1695   1.259       .  A
C1695      O1696   1.268       .  A
C1695      C1866   1.503       .  S
O1696     Cr1701   2.029       .  S
O1697     Cr1701   2.019       .  S
O1697      C1698   1.268       .  A
C1698      C1930   1.502       .  S
Cr1699     O1702   1.768       .  S
Cr1700     O1702   1.793       .  S
Cr1701     O1702   1.795       .  S
O1703     Cr1721   1.961       .  S
O1703      C1711   1.264       .  A
O1704     Cr1721   1.982       .  S
O1704      C1705   1.259       .  A
C1705      C1850   1.505       .  S
O1706     Cr1722   2.002       .  S
O1707      C1708   1.265       .  A
C1708      O1709   1.263       .  A
C1708      C1789   1.490       .  S
O1709     Cr1723   1.991       .  S
O1710     Cr1723   2.005       .  S
O1710      C1711   1.261       .  A
C1711      C1818   1.463       .  S
O1712      C1720   1.260       .  A
O1713      C1714   1.264       .  A
C1714      O1715   1.261       .  A
C1714      C1805   1.449       .  S
O1715     Cr1722   1.995   1_655  S
O1716     Cr1722   1.981   1_655  S
O1716      C1717   1.258       .  A
C1717      O1718   1.263       .  A
C1717      C1770   1.496       .  S
O1719     Cr1723   2.000       .  S
C1720      C1837   1.495       .  S
Cr1721     O1724   1.769       .  S
Cr1723     O1724   1.790       .  S
O1725      C1733   1.264       .  A
O1726      C1727   1.257       .  A
C1727      C1853   1.500       .  S
O1728     Cr1744   2.002   1_455  S
O1729      C1730   1.264       .  A
C1730      O1731   1.259       .  A
C1730      C1885   1.490       .  S
O1731     Cr1745   1.983       .  S
O1732     Cr1745   2.005       .  S
O1732      C1733   1.264       .  A
C1733      C1914   1.459       .  S
O1734     Cr1743   1.982       .  S
O1734      C1742   1.258       .  A
O1735     Cr1743   1.954       .  S
O1735      C1736   1.262       .  A
C1736      O1737   1.266       .  A
C1736      C1898   1.459       .  S
O1737     Cr1744   2.007       .  S
O1738     Cr1744   1.993       .  S
O1738      C1739   1.262       .  A
C1739      O1740   1.264       .  A
C1739      C1869   1.495       .  S
O1741     Cr1745   2.003       .  S
C1742      C1834   1.503   1_554  S
Cr1743     O1746   1.774       .  S
Cr1744     O1746   1.792       .  S
O1747     Cr1765   1.950       .  S
O1747      C1755   1.263       .  A
O1748     Cr1765   1.978   1_556  S
O1748      C1749   1.253   1_556  A
C1749      O1750   1.266       .  A
C1749      C1949   1.508   1_554  S
O1750     Cr1766   2.018       .  S
O1751     Cr1766   2.016       .  S
O1751      C1752   1.266       .  A
C1752      O1753   1.259       .  A
C1752      C1786   1.483       .  S
O1753     Cr1767   1.975       .  S
O1754     Cr1767   2.012       .  S
O1754      C1755   1.266       .  A
C1755      C1821   1.459       .  S
O1756     Cr1765   1.988       .  S
O1756      C1764   1.254       .  A
O1757     Cr1765   1.953       .  S
O1757      C1758   1.262       .  A
C1758      O1759   1.265       .  A
C1758      C1802   1.454       .  S
O1759     Cr1766   2.002       .  S
O1760     Cr1766   1.990       .  S
O1760      C1761   1.260       .  A
C1761      O1762   1.262       .  A
C1761      C1773   1.493       .  S
O1762     Cr1767   2.006       .  S
O1763     Cr1767   2.000       .  S
O1763      C1764   1.258       .  A
C1764      C1933   1.479       .  S
Cr1765     O1768   1.767       .  S
Cr1766     O1768   1.787       .  S
Cr1767     O1768   1.784       .  S
C1769      C1770   1.411       .  A
C1769      C1774   1.415       .  A
C1769      H1776   1.082       .  S
C1770      C1771   1.413       .  A
C1771      C1772   1.414       .  A
C1771      C1778   1.515       .  S
C1772      C1773   1.409       .  A
C1772      H1777   1.082       .  S
C1773      C1774   1.412       .  A
C1774      C1775   1.516       .  S
C1775      F1779   1.384       .  S
C1775      F1780   1.383       .  S
C1775      F1781   1.384       .  S
C1778      F1782   1.383       .  S
C1778      F1783   1.383       .  S
C1778      F1784   1.385       .  S
C1785      C1786   1.399       .  A
C1785      C1790   1.410       .  A
C1785      H1792   1.083       .  S
C1786      C1787   1.419       .  A
C1787      C1788   1.414       .  A
C1787      C1794   1.519       .  S
C1788      C1789   1.403       .  A
C1788      H1793   1.083       .  S
C1789      C1790   1.421       .  A
C1790      C1791   1.517       .  S
C1791      F1795   1.385       .  S
C1791      F1796   1.374       .  S
C1791      F1797   1.380       .  S
C1794      F1798   1.380       .  S
C1794      F1799   1.382       .  S
C1794      F1800   1.384       .  S
C1801      C2082   1.399       .  A
C1801      C1806   1.385       .  A
C1801      H1808   1.082       .  S
C1802      C2081   1.399   1_554  A
C1802      C1803   1.414       .  A
C1803      C2084   1.401       .  A
C1803      C1810   1.511       .  S
C1804      C2083   1.401       .  A
C1804      C1805   1.400       .  A
C1804      H2089   1.083       .  S
C1805      C1806   1.399       .  A
C1806      C1807   1.508       .  S
C1807      F1811   1.384       .  S
C1807      F1812   1.364       .  S
C1807      F1813   1.380       .  S
H1809      C2084   1.083       .  S
C1810      F1814   1.372       .  S
C1810      F1815   1.383       .  S
C1810      F1816   1.385       .  S
C1817      C1818   1.404       .  A
C1817      C2102   1.401       .  A
C1817      H2104   1.084       .  S
C1818      C1819   1.415       .  A
C1819      C1820   1.395       .  A
C1819      C1826   1.517       .  S
C1820      C2101   1.400       .  A
C1820      H1825   1.085       .  S
C1821      C2100   1.400   1_554  A
C1821      C1822   1.410       .  A
C1822      C2097   1.401       .  A
C1822      C1823   1.515       .  S
C1823      F1827   1.385       .  S
C1823      F1828   1.375       .  S
C1823      F1829   1.381       .  S
H1824      C2097   1.084       .  S
C1826      F1830   1.382       .  S
C1826      F1831   1.378       .  S
C1826      F1832   1.383       .  S
C1833      H1840   1.082       .  S
C1834      C1835   1.420   1_556  A
C1835      C1842   1.518   1_565  S
C1836      C1837   1.411       .  A
C1836      H1841   1.083       .  S
C1838      C1839   1.520       .  S
C1839      F1844   1.384       .  S
C1839      F1845   1.383       .  S
C1842      F1846   1.383   1_545  S
C1842      F1847   1.384   1_545  S
C1849      C2134   1.411       .  A
C1849      H2136   1.081       .  S
C1850      C1851   1.420       .  A
C1851      C1852   1.413       .  A
C1851      C1858   1.518       .  S
C1852      C2133   1.411       .  A
C1852      H1857   1.082       .  S
C1853      C2132   1.411   1_554  A
C1854      C2129   1.411       .  A
C1854      C1855   1.521       .  S
C1855      F1859   1.385       .  S
C1855      F1860   1.384       .  S
C1855      F1861   1.383       .  S
H1856      C2129   1.081       .  S
C1858      F1862   1.383       .  S
C1858      F1863   1.382       .  S
C1858      F1864   1.382       .  S
C1865      C1866   1.410       .  A
C1865      C1870   1.413       .  A
C1865      H1872   1.080       .  S
C1866      C1867   1.419       .  A
C1867      C1868   1.418       .  A
C1867      C1874   1.517       .  S
C1868      C1869   1.409       .  A
C1868      H1873   1.082       .  S
C1869      C1870   1.412       .  A
C1870      C1871   1.516       .  S
C1871      F1875   1.385       .  S
C1871      F1876   1.383       .  S
C1871      F1877   1.383       .  S
C1874      F1878   1.382       .  S
C1874      F1879   1.383       .  S
C1874      F1880   1.385       .  S
C1881      C1882   1.397       .  A
C1881      C1886   1.411       .  A
C1881      H1888   1.084       .  S
C1882      C1883   1.424       .  A
C1883      C1884   1.412       .  A
C1883      C1890   1.513       .  S
C1884      C1885   1.397       .  A
C1884      H1889   1.083       .  S
C1885      C1886   1.426       .  A
C1886      C1887   1.514       .  S
C1887      F1891   1.383       .  S
C1887      F1892   1.378       .  S
C1887      F1893   1.379       .  S
C1890      F1894   1.370       .  S
C1890      F1895   1.380       .  S
C1890      F1896   1.385       .  S
C1897      C2178   1.401       .  A
C1897      C1902   1.401       .  A
C1897      H1904   1.084       .  S
C1898      C2177   1.401   1_554  A
C1898      C1899   1.410       .  A
C1899      C2180   1.396       .  A
C1899      C1906   1.510       .  S
C1900      C2179   1.396       .  A
C1900      C1901   1.401       .  A
C1900      H2185   1.084       .  S
C1901      C1902   1.412       .  A
C1902      C1903   1.513       .  S
C1903      F1907   1.384       .  S
C1903      F1908   1.372       .  S
C1903      F1909   1.382       .  S
H1905      C2180   1.084       .  S
C1906      F1910   1.376       .  S
C1906      F1911   1.383       .  S
C1906      F1912   1.385       .  S
C1913      C2194   1.397       .  A
C1913      C1918   1.395       .  A
C1913      H1920   1.085       .  S
C1914      C2193   1.397   1_554  A
C1914      C1915   1.410       .  A
C1915      C2196   1.401       .  A
C1915      C1922   1.513       .  S
C1916      C2195   1.401       .  A
C1916      C1917   1.402       .  A
C1916      H2201   1.083       .  S
C1917      C1918   1.416       .  A
C1918      C1919   1.513       .  S
C1919      F1923   1.383       .  S
C1919      F1924   1.379       .  S
C1919      F1925   1.377       .  S
H1921      C2196   1.083       .  S
C1922      F1926   1.371       .  S
C1922      F1927   1.382       .  S
C1922      F1928   1.383       .  S
C1929      C1930   1.411       .  A
C1929      H1936   1.082       .  S
C1930      C1931   1.416       .  A
C1931      C1938   1.513       .  S
C1932      C1933   1.413   1_556  A
C1932      H1937   1.083       .  S
C1933      C2214   1.415       .  A
C1934      C2213   1.415       .  A
C1934      C1935   1.523       .  S
C1935      F1939   1.385       .  S
C1935      F1940   1.382       .  S
C1935      F2221   1.377       .  S
C1938      F1942   1.382       .  S
C1938      F1943   1.384       .  S
C1938      F1944   1.384   1_565  S
F1941      C2215   1.377       .  S
C1945      C1946   1.390       .  A
C1945      C1950   1.402       .  A
C1945      H1952   1.082       .  S
C1946      C1947   1.414       .  A
C1947      C2228   1.414       .  A
C1947      C1954   1.510       .  S
C1948      C2227   1.414   1_554  A
C1948      C1949   1.408   1_554  A
C1948      H1953   1.080       .  S
C1949      C2230   1.437       .  A
C1950      C2229   1.437       .  A
C1950      C1951   1.517       .  S
C1951      F1955   1.385       .  S
C1951      F1956   1.383       .  S
C1951      F2237   1.377       .  S
C1954      F1958   1.383       .  S
C1954      F1959   1.381       .  S
C1954      F2240   1.384       .  S
F1957      C2231   1.377       .  S
F1960      C2234   1.384       .  S
O1961     Cr1979   1.968       .  S
O1961      C1969   1.266       .  A
O1962     Cr1979   1.981       .  S
O1962      C1963   1.254       .  A
C1963      O1964   1.259       .  A
C1963      C2226   1.479       .  S
O1964     Cr1980   1.986       .  S
O1965     Cr1980   2.010       .  S
O1965      C1966   1.264       .  A
C1966      O1967   1.261       .  A
C1966      C2162   1.495       .  S
O1967     Cr1981   1.994       .  S
O1968     Cr1981   2.000       .  S
O1968      C1969   1.261       .  A
C1969      C2197   1.462       .  S
O1970     Cr1979   1.953       .  S
O1970      C1978   1.256       .  A
O1971     Cr1979   1.951       .  S
O1971      C1972   1.262       .  A
C1972      O1973   1.264       .  A
C1972      C2181   1.466       .  S
O1973     Cr1980   2.011       .  S
O1974     Cr1980   1.981       .  S
O1974      C1975   1.259       .  A
C1975      O1976   1.268       .  A
C1975      C2146   1.503       .  S
O1976     Cr1981   2.029       .  S
O1977     Cr1981   2.019       .  S
O1977      C1978   1.268       .  A
C1978      C2210   1.502       .  S
Cr1979     O1982   1.768       .  S
Cr1980     O1982   1.793       .  S
Cr1981     O1982   1.795       .  S
O1983     Cr2001   1.961       .  S
O1983      C1991   1.264       .  A
O1984     Cr2001   1.982       .  S
O1984      C1985   1.259       .  A
C1985      C2130   1.505       .  S
O1986     Cr2002   2.002       .  S
O1987      C1988   1.265       .  A
C1988      O1989   1.263       .  A
C1988      C2069   1.490       .  S
O1989     Cr2003   1.991       .  S
O1990     Cr2003   2.005       .  S
O1990      C1991   1.261       .  A
C1991      C2098   1.463       .  S
O1992      C2000   1.260       .  A
O1993      C1994   1.264       .  A
C1994      O1995   1.261       .  A
C1994      C2085   1.449       .  S
O1995     Cr2002   1.994   1_655  S
O1996     Cr2002   1.981   1_655  S
O1996      C1997   1.258       .  A
C1997      O1998   1.263       .  A
C1997      C2050   1.496       .  S
O1999     Cr2003   2.000       .  S
C2000      C2117   1.495       .  S
Cr2001     O2004   1.769       .  S
Cr2003     O2004   1.790       .  S
O2005      C2013   1.264       .  A
O2006      C2007   1.257       .  A
C2007      C2133   1.500       .  S
O2008     Cr2024   2.002   1_455  S
O2009      C2010   1.264       .  A
C2010      O2011   1.259       .  A
C2010      C2165   1.490       .  S
O2011     Cr2025   1.983       .  S
O2012     Cr2025   2.005       .  S
O2012      C2013   1.264       .  A
C2013      C2194   1.459       .  S
O2014     Cr2023   1.982       .  S
O2014      C2022   1.258       .  A
O2015     Cr2023   1.954       .  S
O2015      C2016   1.262       .  A
C2016      O2017   1.266       .  A
C2016      C2178   1.459       .  S
O2017     Cr2024   2.007       .  S
O2018     Cr2024   1.993       .  S
O2018      C2019   1.262       .  A
C2019      O2020   1.264       .  A
C2019      C2149   1.495       .  S
O2021     Cr2025   2.003       .  S
C2022      C2114   1.503       .  S
Cr2023     O2026   1.774       .  S
Cr2024     O2026   1.792       .  S
O2027     Cr2045   1.950       .  S
O2027      C2035   1.263       .  A
O2028     Cr2045   1.978       .  S
O2028      C2029   1.253       .  A
C2029      O2030   1.266       .  A
C2029      C2229   1.508       .  S
O2030     Cr2046   2.019       .  S
O2031     Cr2046   2.016       .  S
O2031      C2032   1.266       .  A
C2032      O2033   1.259       .  A
C2032      C2066   1.483       .  S
O2033     Cr2047   1.975       .  S
O2034     Cr2047   2.012       .  S
O2034      C2035   1.266       .  A
C2035      C2101   1.459       .  S
O2036     Cr2045   1.988       .  S
O2036      C2044   1.254       .  A
O2037     Cr2045   1.953       .  S
O2037      C2038   1.262       .  A
C2038      O2039   1.265       .  A
C2038      C2082   1.454       .  S
O2039     Cr2046   2.002       .  S
O2040     Cr2046   1.990       .  S
O2040      C2041   1.260       .  A
C2041      O2042   1.262       .  A
C2041      C2053   1.493       .  S
O2042     Cr2047   2.006       .  S
O2043     Cr2047   2.001       .  S
O2043      C2044   1.258       .  A
C2044      C2213   1.479       .  S
Cr2045     O2048   1.767       .  S
Cr2046     O2048   1.787       .  S
Cr2047     O2048   1.784       .  S
C2049      C2050   1.411       .  A
C2049      C2054   1.415       .  A
C2049      H2056   1.082       .  S
C2050      C2051   1.413       .  A
C2051      C2052   1.414       .  A
C2051      C2058   1.515       .  S
C2052      C2053   1.409       .  A
C2052      H2057   1.082       .  S
C2053      C2054   1.412       .  A
C2054      C2055   1.516       .  S
C2055      F2059   1.384       .  S
C2055      F2060   1.383       .  S
C2055      F2061   1.384       .  S
C2058      F2062   1.383       .  S
C2058      F2063   1.383       .  S
C2058      F2064   1.385       .  S
C2065      C2066   1.399       .  A
C2065      C2070   1.410       .  A
C2065      H2072   1.083       .  S
C2066      C2067   1.419       .  A
C2067      C2068   1.414       .  A
C2067      C2074   1.519       .  S
C2068      C2069   1.403       .  A
C2068      H2073   1.083       .  S
C2069      C2070   1.421       .  A
C2070      C2071   1.517       .  S
C2071      F2075   1.385       .  S
C2071      F2076   1.374       .  S
C2071      F2077   1.380       .  S
C2074      F2078   1.380       .  S
C2074      F2079   1.382       .  S
C2074      F2080   1.384       .  S
C2081      C2086   1.385       .  A
C2081      H2088   1.082       .  S
C2082      C2083   1.414       .  A
C2083      C2090   1.511       .  S
C2084      C2085   1.400   1_554  A
C2085      C2086   1.399       .  A
C2086      C2087   1.508       .  S
C2087      F2091   1.384       .  S
C2087      F2092   1.364       .  S
C2087      F2093   1.380       .  S
C2090      F2094   1.372       .  S
C2090      F2095   1.383       .  S
C2090      F2096   1.385       .  S
C2097      C2098   1.404   1_554  A
C2098      C2099   1.415       .  A
C2099      C2100   1.395       .  A
C2099      C2106   1.517       .  S
C2100      H2105   1.085       .  S
C2101      C2102   1.410       .  A
C2102      C2103   1.516       .  S
C2103      F2107   1.385       .  S
C2103      F2108   1.375       .  S
C2103      F2109   1.381       .  S
C2106      F2110   1.382       .  S
C2106      F2111   1.378       .  S
C2106      F2112   1.383       .  S
C2113      H2120   1.082       .  S
C2114      C2115   1.420       .  A
C2115      C2122   1.518   1_565  S
C2116      C2117   1.411       .  A
C2116      H2121   1.083   1_556  S
C2118      C2119   1.520       .  S
C2119      F2124   1.384       .  S
C2119      F2125   1.383       .  S
C2122      F2126   1.383   1_545  S
C2122      F2127   1.384   1_545  S
C2130      C2131   1.420       .  A
C2131      C2132   1.413       .  A
C2131      C2138   1.518       .  S
C2132      H2137   1.082       .  S
C2134      C2135   1.521       .  S
C2135      F2139   1.385       .  S
C2135      F2140   1.384       .  S
C2135      F2141   1.383       .  S
C2138      F2142   1.383       .  S
C2138      F2143   1.382       .  S
C2138      F2144   1.382       .  S
C2145      C2146   1.410       .  A
C2145      C2150   1.413       .  A
C2145      H2152   1.080       .  S
C2146      C2147   1.419       .  A
C2147      C2148   1.418       .  A
C2147      C2154   1.517       .  S
C2148      C2149   1.409       .  A
C2148      H2153   1.082       .  S
C2149      C2150   1.412       .  A
C2150      C2151   1.516       .  S
C2151      F2155   1.385       .  S
C2151      F2156   1.383       .  S
C2151      F2157   1.383       .  S
C2154      F2158   1.382       .  S
C2154      F2159   1.383       .  S
C2154      F2160   1.385       .  S
C2161      C2162   1.397       .  A
C2161      C2166   1.411       .  A
C2161      H2168   1.084       .  S
C2162      C2163   1.424       .  A
C2163      C2164   1.412       .  A
C2163      C2170   1.513       .  S
C2164      C2165   1.397       .  A
C2164      H2169   1.083       .  S
C2165      C2166   1.426       .  A
C2166      C2167   1.513       .  S
C2167      F2171   1.383       .  S
C2167      F2172   1.378       .  S
C2167      F2173   1.379       .  S
C2170      F2174   1.370       .  S
C2170      F2175   1.380       .  S
C2170      F2176   1.385       .  S
C2177      C2182   1.401       .  A
C2177      H2184   1.084       .  S
C2178      C2179   1.410       .  A
C2179      C2186   1.510       .  S
C2180      C2181   1.401   1_554  A
C2181      C2182   1.412       .  A
C2182      C2183   1.513       .  S
C2183      F2187   1.384       .  S
C2183      F2188   1.372       .  S
C2183      F2189   1.382       .  S
C2186      F2190   1.376       .  S
C2186      F2191   1.383       .  S
C2186      F2192   1.385       .  S
C2193      C2198   1.395       .  A
C2193      H2200   1.085       .  S
C2194      C2195   1.410       .  A
C2195      C2202   1.513       .  S
C2196      C2197   1.402   1_554  A
C2197      C2198   1.416       .  A
C2198      C2199   1.513       .  S
C2199      F2203   1.383       .  S
C2199      F2204   1.379       .  S
C2199      F2205   1.377       .  S
C2202      F2206   1.371       .  S
C2202      F2207   1.382       .  S
C2202      F2208   1.383       .  S
C2209      C2210   1.411   1_554  A
C2209      H2216   1.082       .  S
C2210      C2211   1.416       .  A
C2211      C2218   1.513       .  S
C2212      C2213   1.413       .  A
C2212      H2217   1.083       .  S
C2214      C2215   1.523       .  S
C2215      F2219   1.385       .  S
C2215      F2220   1.382       .  S
C2218      F2222   1.382       .  S
C2218      F2223   1.384       .  S
C2218      F2224   1.384   1_565  S
C2225      C2226   1.390       .  A
C2225      C2230   1.402       .  A
C2225      H2232   1.082       .  S
C2226      C2227   1.414       .  A
C2227      C2234   1.510   1_556  S
C2228      C2229   1.408       .  A
C2228      H2233   1.080       .  S
C2230      C2231   1.517       .  S
C2231      F2235   1.385       .  S
C2231      F2236   1.383       .  S
C2234      F2238   1.383   1_554  S
C2234      F2239   1.381       .  S
