geometry optimzed in LAMMPS
_audit_creation_date              2020-12-01 
_audit_creation_method            'lammps2cif' 
_symmetry_space_group_name_H-M    'P1' 
_symmetry_Int_Tables_number       1 
_symmetry_cell_setting            triclinic 
loop_ 
_symmetry_equiv_pos_as_xyz 
  x,y,z 
_cell_length_a                    32.70668998 
_cell_length_b                    32.65816556334403 
_cell_length_c                    32.6937144161444 
_cell_angle_alpha                 89.82552076976162 
_cell_angle_beta                  89.23099320518132 
_cell_angle_gamma                 89.8054683705938 
loop_ 
_atom_site_label 
_atom_site_type_symbol 
_atom_site_fract_x 
_atom_site_fract_y 
_atom_site_fract_z 
_atom_site_charge 
O1          O  0.66330388  0.39115345  0.03666095    -0.74400
O2          O  0.66362765  0.27387068  0.03339085    -0.74400
O3          O  0.72232568  0.33250041  0.03454269    -0.74400
O4          O  0.60498356  0.33256601  0.03511784    -0.74500
O5          O  0.60582479  0.33460599  0.96707394    -0.74400
O6          O  0.72270465  0.33465663  0.96629792    -0.74400
O7          O  0.66393840  0.27579726  0.96523973    -0.74400
O8          O  0.66403838  0.39305838  0.96854632    -0.74400
Ni9        Ni  0.66359165  0.33242359  0.03738562     1.25400
Ni10       Ni  0.66420121  0.33456983  0.96438803     1.25400
C11         C  0.66335535  0.41147349  0.00312300     0.87800
C12         C  0.66301042  0.25552041  0.99882556     0.87800
C13         C  0.74171751  0.33377750  0.00024117     0.87800
C14         C  0.58602927  0.33386509  0.00104263     0.87900
O15         O  0.38842387  0.32743645  0.03834392    -0.74400
O16         O  0.27141891  0.32963890  0.03731133    -0.74400
O17         O  0.32925510  0.26998587  0.03658881    -0.74400
O18         O  0.33114339  0.38695111  0.03879079    -0.74500
O19         O  0.33238523  0.38883155  0.97086864    -0.74400
O20         O  0.33071315  0.27152825  0.96848991    -0.74400
O21         O  0.27274073  0.33135143  0.96925953    -0.74400
O22         O  0.39013248  0.32920635  0.97032507    -0.74400
Ni23       Ni  0.32994119  0.32842463  0.04012836     1.25400
Ni24       Ni  0.33151155  0.33024131  0.96726714     1.25400
C25         C  0.40869427  0.32806159  0.00463976     0.87800
C26         C  0.25264994  0.33081271  0.00323354     0.87800
C27         C  0.32991704  0.25139525  0.00214660     0.87800
C28         C  0.33212148  0.40739646  0.00537142     0.87900
O29         O  0.60874864  0.66678900  0.03257015    -0.74400
O30         O  0.72614697  0.66630239  0.03422954    -0.74400
O31         O  0.66691819  0.72565336  0.03325422    -0.74400
O32         O  0.66718186  0.60803531  0.03344990    -0.74500
O33         O  0.66942277  0.60845901  0.96537956    -0.74400
O34         O  0.66822726  0.72548324  0.96531553    -0.74400
O35         O  0.72786681  0.66715484  0.96612541    -0.74400
O36         O  0.61068321  0.66665341  0.96448637    -0.74400
Ni37       Ni  0.66727883  0.66675907  0.03584128     1.25400
Ni38       Ni  0.66922377  0.66697619  0.96295808     1.25400
C39         C  0.59035868  0.66672436  0.99818548     0.87800
C40         C  0.74642005  0.66607569  0.00041228     0.87800
C41         C  0.66672051  0.74511590  0.99908311     0.87800
C42         C  0.66824151  0.58884088  0.99929729     0.87900
O43         O  0.33616291  0.60598163  0.96888053    -0.74400
O44         O  0.33631449  0.72318640  0.97175096    -0.74400
O45         O  0.39446502  0.66428295  0.97022544    -0.74400
O46         O  0.27764012  0.66460942  0.97016499    -0.74500
O47         O  0.27622354  0.66242141  0.03824648    -0.74400
O48         O  0.39365116  0.66273336  0.03835054    -0.74400
O49         O  0.33454259  0.72141397  0.03995060    -0.74400
O50         O  0.33555498  0.60414591  0.03684204    -0.74400
Ni51       Ni  0.33612748  0.66463817  0.96787350     1.25400
Ni52       Ni  0.33493092  0.66266145  0.04081641     1.25400
C53         C  0.33629299  0.58556857  0.00233785     0.87800
C54         C  0.33549645  0.74157260  0.00630275     0.87800
C55         C  0.41338527  0.66303727  0.00423212     0.87800
C56         C  0.25758480  0.66280382  0.00398173     0.87900
O57         O  0.60730667  0.95942922  0.66832842    -0.74400
O58         O  0.72501485  0.96124839  0.66989133    -0.74400
O59         O  0.66422291  0.95969572  0.72819372    -0.74400
O60         O  0.66770276  0.96070586  0.61080282    -0.74500
O61         O  0.66653834  0.02888007  0.61126686    -0.74400
O62         O  0.66310446  0.02785174  0.72858358    -0.74400
O63         O  0.72340738  0.02952115  0.67066903    -0.74400
O64         O  0.60631273  0.02766186  0.66911089    -0.74400
Ni65       Ni  0.66615536  0.95780936  0.66937726     1.25400
Ni66       Ni  0.66481765  0.03086104  0.66994692     1.25400
C67         C  0.58748685  0.99336370  0.66811774     0.87800
C68         C  0.74350219  0.99582532  0.67017288     0.87800
C69         C  0.66253435  0.99357698  0.74781514     0.87800
C70         C  0.66779152  0.99499930  0.59165054     0.87900
O71         O  0.33200735  0.96953325  0.61078321    -0.74400
O72         O  0.33246992  0.96642811  0.72812546    -0.74400
O73         O  0.27372261  0.96813458  0.66998493    -0.74400
O74         O  0.39083136  0.96695086  0.66848505    -0.74500
O75         O  0.39136237  0.03515520  0.67003938    -0.74400
O76         O  0.27379469  0.03630262  0.67212756    -0.74400
O77         O  0.33308937  0.03453407  0.72969819    -0.74400
O78         O  0.33178599  0.03771241  0.61245175    -0.74400
Ni79       Ni  0.33225141  0.96535778  0.66933788     1.25400
Ni80       Ni  0.33256241  0.03836513  0.67114659     1.25400
C81         C  0.33115132  0.00420645  0.59226901     0.87800
C82         C  0.33279353  0.99997831  0.74836469     0.87800
C83         C  0.25441658  0.00227209  0.67041482     0.87800
C84         C  0.41043377  0.00078133  0.66948392     0.87900
O85         O  0.38830682  0.96491165  0.33673298    -0.74400
O86         O  0.27093756  0.96619029  0.33779186    -0.74400
O87         O  0.33018217  0.96521185  0.27838787    -0.74400
O88         O  0.32949381  0.96574888  0.39579055    -0.74500
O89         O  0.32924080  0.03393891  0.39545494    -0.74400
O90         O  0.33092324  0.03330520  0.27816455    -0.74400
O91         O  0.27135256  0.03440070  0.33676347    -0.74400
O92         O  0.38847763  0.03300792  0.33675900    -0.74400
Ni93       Ni  0.32963533  0.96307231  0.33716662     1.25400
Ni94       Ni  0.32997001  0.03606119  0.33675108     1.25400
C95         C  0.40783295  0.99889254  0.33703266     0.87800
C96         C  0.25179753  0.00049018  0.33775780     0.87800
C97         C  0.33093440  0.99929307  0.25880235     0.87800
C98         C  0.32982499  0.99985967  0.41498860     0.87900
O99         O  0.66415184  0.95779388  0.39462797    -0.74400
O100        O  0.66380840  0.95899904  0.27737264    -0.74400
O101        O  0.72280042  0.95924515  0.33493544    -0.74400
O102        O  0.60538995  0.95763072  0.33674542    -0.74500
O103        O  0.60442599  0.02573568  0.33808473    -0.74400
O104        O  0.72156767  0.02742739  0.33445177    -0.74400
O105        O  0.66172693  0.02717067  0.27788896    -0.74400
O106        O  0.66399512  0.02596529  0.39515394    -0.74400
Ni107      Ni  0.66410910  0.95598315  0.33596391     1.25400
Ni108      Ni  0.66291598  0.02898444  0.33649053     1.25400
C109        C  0.66392704  0.99164137  0.41429004     0.87800
C110        C  0.66253563  0.99325539  0.25827277     0.87800
C111        C  0.74156176  0.99365934  0.33361916     0.87800
C112        C  0.58547618  0.99146136  0.33714175     0.87900
O113        O  0.04171277  0.61536914  0.66280736    -0.74400
O114        O  0.04092041  0.73262686  0.66180967    -0.74400
O115        O  0.04355448  0.67418670  0.72124926    -0.74400
O116        O  0.03897260  0.67349223  0.60389237    -0.74500
O117        O  0.97091954  0.67358094  0.60725657    -0.74400
O118        O  0.97539239  0.67423676  0.72443381    -0.74400
O119        O  0.97286417  0.73245682  0.66534183    -0.74400
O120        O  0.97372748  0.61512124  0.66611657    -0.74400
Ni121      Ni  0.04371606  0.67396544  0.66235777     1.25400
Ni122      Ni  0.97081330  0.67383309  0.66595522     1.25400
C123        C  0.00791452  0.59579088  0.66446035     0.87800
C124        C  0.00678265  0.75190509  0.66298327     0.87800
C125        C  0.01009581  0.67455842  0.74211936     0.87800
C126        C  0.00420391  0.67335976  0.58621283     0.87900
O127        O  0.03481776  0.33832772  0.60312989    -0.74400
O128        O  0.03413582  0.34062013  0.72026509    -0.74400
O129        O  0.03378517  0.28082178  0.66272106    -0.74400
O130        O  0.03507119  0.39819280  0.66050905    -0.74500
O131        O  0.96706660  0.39917412  0.66170362    -0.74400
O132        O  0.96567348  0.28203797  0.66343226    -0.74400
O133        O  0.96611018  0.34144704  0.72112829    -0.74400
O134        O  0.96697570  0.33994686  0.60399902    -0.70800
Ni135      Ni  0.03688779  0.33947464  0.66167050     1.25400
Ni136      Ni  0.96405335  0.34067696  0.66256693     1.25400
C137        C  0.00085391  0.33830820  0.58401565     0.87800
C138        C  0.00014251  0.34180556  0.74009472     0.87800
C139        C  0.99941705  0.26208417  0.66345880     0.87800
C140        C  0.00121737  0.41812630  0.66061644     0.87900
O141        O  0.97196307  0.66348688  0.39050367    -0.74400
O142        O  0.97123298  0.66271428  0.27326196    -0.74400
O143        O  0.97451224  0.60447601  0.33231240    -0.74400
O144        O  0.96882777  0.72168259  0.33150991    -0.74500
O145        O  0.03672395  0.72477737  0.33069767    -0.74400
O146        O  0.04250378  0.60749066  0.33018817    -0.74400
O147        O  0.03924856  0.66661771  0.27190752    -0.74400
O148        O  0.04002150  0.66577327  0.38907448    -0.74400
Ni149      Ni  0.96921334  0.66295863  0.33194546     1.25400
Ni150      Ni  0.04204212  0.66625059  0.33043461     1.25400
C151        C  0.00616069  0.66459716  0.40913728     0.87800
C152        C  0.00512182  0.66502062  0.25328185     0.87800
C153        C  0.00945381  0.58658998  0.33097067     0.87800
C154        C  0.00177884  0.74272077  0.33088001     0.87900
O155        O  0.03941522  0.38920027  0.32613005    -0.74400
O156        O  0.03735343  0.27182794  0.32589300    -0.74400
O157        O  0.03615432  0.33085923  0.26730233    -0.74400
O158        O  0.04049072  0.33030472  0.38447943    -0.74500
O159        O  0.97267476  0.33212331  0.38760337    -0.74400
O160        O  0.96803305  0.33132430  0.27076847    -0.74400
O161        O  0.96937240  0.27306044  0.32969194    -0.74400
O162        O  0.97138099  0.39028744  0.32898250    -0.74400
Ni163      Ni  0.04079148  0.33045876  0.32576325     1.25400
Ni164      Ni  0.96796497  0.33173028  0.32933675     1.25400
C165        C  0.00564109  0.40912086  0.32842115     0.87800
C166        C  0.00310992  0.25302757  0.32818246     0.87800
C167        C  0.00133155  0.33089737  0.24978918     0.87800
C168        C  0.00727757  0.33168441  0.40558647     0.87900
O169        O  0.93891212  0.37502580  0.99613780    -0.74400
O170        O  0.05633516  0.37376575  0.99470201    -0.74400
O171        O  0.99744615  0.37515748  0.93670033    -0.74400
O172        O  0.99762457  0.37373176  0.05386371    -0.74500
O173        O  0.99681601  0.30560195  0.05347567    -0.74400
O174        O  0.99674869  0.30691225  0.93629020    -0.74400
O175        O  0.05573012  0.30556172  0.99470055    -0.74400
O176        O  0.93832266  0.30705795  0.99544620    -0.74400
Ni177      Ni  0.99760871  0.37683585  0.99533369     1.25400
Ni178      Ni  0.99691992  0.30386037  0.99489823     1.25400
C179        C  0.91903274  0.34132785  0.99586044     0.87800
C180        C  0.07543308  0.33944932  0.99494018     0.87800
C181        C  0.99633918  0.34121585  0.91722721     0.87800
C182        C  0.99772392  0.33951167  0.07304758     0.87900
O183        O  0.06129840  0.69879701  0.00121630    -0.74400
O184        O  0.94408750  0.70014277  0.99671483    -0.74400
O185        O  0.99998773  0.69791117  0.05738613    -0.74400
O186        O  0.00586718  0.70104120  0.94000965    -0.74500
O187        O  0.00446097  0.63304672  0.93859024    -0.74400
O188        O  0.00014286  0.62980063  0.05590527    -0.74400
O189        O  0.94338537  0.63200217  0.99611206    -0.74400
O190        O  0.06087991  0.63064532  0.99881358    -0.74400
Ni191      Ni  0.00275589  0.70188260  0.99882224     1.25400
Ni192      Ni  0.00214642  0.62895869  0.99722144     1.25400
C193        C  0.08038951  0.66450426  0.00138172     0.87800
C194        C  0.92429823  0.66637326  0.99596998     0.87800
C195        C  0.99951536  0.66333716  0.07609131     0.87800
C196        C  0.00666343  0.66744555  0.91976641     0.87900
O197        O  0.93871475  0.99466311  0.29657132    -0.74400
O198        O  0.05620957  0.00054139  0.29739279    -0.74400
O199        O  0.00037370  0.93895151  0.29804495    -0.74400
O200        O  0.99446230  0.05606647  0.29515712    -0.74500
O201        O  0.99333688  0.05742467  0.36334087    -0.74400
O202        O  0.99976895  0.94004739  0.36627497    -0.74400
O203        O  0.05466511  0.00181458  0.36550885    -0.74400
O204        O  0.93791172  0.99549835  0.36470362    -0.74400
Ni205      Ni  0.99749283  0.99748981  0.29434014     1.25400
Ni206      Ni  0.99629314  0.99877560  0.36735532     1.25400
C207        C  0.91899411  0.99370614  0.33075154     0.87800
C208        C  0.07476969  0.00235744  0.33165435     0.87800
C209        C  0.00116307  0.92025465  0.33251258     0.87800
C210        C  0.99325696  0.07604022  0.32874496     0.87900
O211        O  0.05606053  0.00819643  0.69916562    -0.74400
O212        O  0.93929363  0.00663571  0.69503405    -0.74400
O213        O  0.99840786  0.94890181  0.69808298    -0.74400
O214        O  0.99716920  0.06618438  0.69537305    -0.74500
O215        O  0.00093198  0.06482362  0.62732236    -0.74400
O216        O  0.00131954  0.94768362  0.62998474    -0.74400
O217        O  0.94192042  0.00577546  0.62711829    -0.74400
O218        O  0.05965874  0.00636495  0.63113174    -0.74400
Ni219      Ni  0.99757596  0.00757829  0.69928115     1.25400
Ni220      Ni  0.00101375  0.00616918  0.62642225     1.25400
C221        C  0.07721681  0.00765102  0.66600059     0.87800
C222        C  0.92103711  0.00521428  0.66063564     0.87800
C223        C  0.99986343  0.92896656  0.66443349     0.87800
C224        C  0.99971898  0.08485313  0.66087967     0.87900
O225        O  0.62409742  0.99988534  0.94447080    -0.74400
O226        O  0.62243044  0.00261851  0.06201271    -0.74400
O227        O  0.62531495  0.06009492  0.00176272    -0.74400
O228        O  0.62154386  0.94236886  0.00496797    -0.74500
O229        O  0.68975323  0.94059468  0.00352430    -0.74400
O230        O  0.69330416  0.05741958  0.00294267    -0.74400
O231        O  0.69046221  0.99906113  0.06185157    -0.74400
O232        O  0.69223158  0.99897624  0.94470054    -0.74400
Ni233      Ni  0.62084681  0.00133779  0.00328817     1.25400
Ni234      Ni  0.69378976  0.99893396  0.00327969     1.25400
C235        C  0.65853321  0.99958841  0.92524407     0.87800
C236        C  0.65622807  0.00102757  0.08130649     0.87800
C237        C  0.66009939  0.07815167  0.00236780     0.87800
C238        C  0.65526600  0.92223330  0.00456755     0.87900
O239        O  0.37459491  0.99513485  0.06195583    -0.74400
O240        O  0.37400664  0.99991029  0.94437359    -0.74400
O241        O  0.37325090  0.05599519  0.00524332    -0.74400
O242        O  0.37553539  0.93881158  0.00140709    -0.74500
O243        O  0.30755467  0.93770184  0.00358783    -0.74400
O244        O  0.30509970  0.05483625  0.00485246    -0.74400
O245        O  0.30591040  0.99732860  0.94566194    -0.74400
O246        O  0.30639964  0.99551157  0.06270226    -0.74400
Ni247      Ni  0.37681455  0.99747021  0.00315592     1.25400
Ni248      Ni  0.30385052  0.99626246  0.00423221     1.25400
C249        C  0.34042851  0.99479931  0.08160610     0.87800
C250        C  0.33977789  0.99969285  0.92570785     0.87800
C251        C  0.33878675  0.07467753  0.00557016     0.87800
C252        C  0.34196590  0.91878516  0.00238035     0.87900
C253        C  0.97014879  0.18846211  0.30722582    -0.05700
C254        C  0.00194714  0.20756212  0.32841373     0.00200
C255        C  0.03043402  0.18304228  0.35005038    -0.08400
C256        C  0.02576292  0.14024539  0.34965931    -0.05700
C257        C  0.99449593  0.12128269  0.32786877     0.00200
C258        C  0.96615665  0.14558641  0.30606850    -0.08300
C259        C  0.93104260  0.12658353  0.28297077     0.62100
H260        H  0.94848690  0.20754821  0.29113365     0.12800
H261        H  0.04715818  0.12093333  0.36588171     0.12800
C262        C  0.06506835  0.20155732  0.37431270     0.62300
F263        F  0.90537586  0.15598493  0.26654392    -0.22800
F264        F  0.90812494  0.10239792  0.30931667    -0.20200
F265        F  0.94602347  0.10292586  0.25111887    -0.19800
F266        F  0.04962049  0.23013667  0.40162964    -0.19900
F267        F  0.09282958  0.22011698  0.34800240    -0.20200
F268        F  0.08601540  0.17221745  0.39648771    -0.22900
C269        C  0.97713996  0.30734654  0.13878007    -0.05700
C270        C  0.99874950  0.33867217  0.11843242     0.00200
C271        C  0.02211500  0.36669540  0.14160651    -0.08400
C272        C  0.02208717  0.36274858  0.18446039    -0.05700
C273        C  0.99978340  0.33203683  0.20466652     0.00200
C274        C  0.97736519  0.30334752  0.18164055    -0.08300
C275        C  0.95548659  0.26755665  0.20197193     0.62100
H276        H  0.95989048  0.28588805  0.12070308     0.12800
H277        H  0.03921779  0.38410590  0.20279087     0.12800
C278        C  0.04794534  0.39995508  0.12154989     0.62300
F279        F  0.93922859  0.24100875  0.17357499    -0.22800
F280        F  0.92375787  0.28162456  0.22653733    -0.20200
F281        F  0.98282415  0.24569823  0.22551818    -0.19800
F282        F  0.02284684  0.42913126  0.10408181    -0.19900
F283        F  0.07324408  0.38302066  0.09180581    -0.20200
F284        F  0.07249382  0.41959633  0.14948544    -0.22900
C285        C  0.98224195  0.52036248  0.35550943    -0.05700
C286        C  0.01100372  0.54112746  0.33094152     0.00200
C287        C  0.03892964  0.51820277  0.30641197    -0.08400
C288        C  0.03582646  0.47518531  0.30635413    -0.05700
C289        C  0.00646715  0.45451359  0.33031171     0.00200
C290        C  0.97993789  0.47737408  0.35636767    -0.08300
C291        C  0.95050107  0.45678018  0.38631825     0.62100
H292        H  0.96161766  0.53829274  0.37454358     0.12800
H293        H  0.05637574  0.45718748  0.28731145     0.12800
C294        C  0.07146492  0.53872578  0.27990551     0.62300
F295        F  0.93269271  0.48461659  0.41305125    -0.22800
F296        F  0.97126155  0.42808554  0.40942609    -0.20200
F297        F  0.91945899  0.43781713  0.36533894    -0.19800
F298        F  0.09991770  0.55735835  0.30455275    -0.19900
F299        F  0.05368901  0.56770743  0.25476056    -0.20200
F300        F  0.09208428  0.51090474  0.25522309    -0.22900
C301        C  0.96964050  0.85451551  0.31460822    -0.05700
C302        C  0.00208493  0.87504270  0.33294897     0.00200
C303        C  0.03460958  0.85233844  0.34992837    -0.08400
C304        C  0.03305080  0.80930910  0.34859602    -0.05700
C305        C  0.00007828  0.78836556  0.33105085     0.00200
C306        C  0.96764749  0.81147135  0.31356209    -0.08300
C307        C  0.93127433  0.79145668  0.29326306     0.62100
H308        H  0.94538501  0.87277862  0.30149501     0.12800
H309        H  0.05766562  0.79161243  0.36175903     0.12800
C310        C  0.07137758  0.87348628  0.36810405     0.62300
F311        F  0.90617651  0.81994066  0.27455717    -0.22800
F312        F  0.90793503  0.77093758  0.32227835    -0.20200
F313        F  0.94469008  0.76431547  0.26355226    -0.19800
F314        F  0.05950072  0.89517486  0.40252876    -0.19900
F315        F  0.08825089  0.90006433  0.33958475    -0.20200
F316        F  0.10140666  0.84582079  0.37935013    -0.22900
C317        C  0.98155721  0.63489930  0.18861099    -0.05700
C318        C  0.00454375  0.66515097  0.20803729     0.00200
C319        C  0.02517098  0.69509731  0.18417022    -0.08400
C320        C  0.02159569  0.69379356  0.14137323    -0.05700
C321        C  0.99982670  0.66267858  0.12163053     0.00200
C322        C  0.97929234  0.63258281  0.14568803    -0.08300
C323        C  0.95446732  0.59855500  0.12662302     0.62100
H324        H  0.96606436  0.61234253  0.20754303     0.12800
H325        H  0.03671798  0.71684325  0.12280100     0.12800
C326        C  0.05031365  0.72870477  0.20363622     0.62300
F327        F  0.93206779  0.57693541  0.15566325    -0.22800
F328        F  0.98034463  0.57123102  0.10690198    -0.20200
F329        F  0.92726372  0.61489270  0.09895086    -0.19800
F330        F  0.08401493  0.71178945  0.22246387    -0.19900
F331        F  0.02679878  0.74950552  0.23228962    -0.20200
F332        F  0.06432032  0.75687526  0.17502887    -0.22900
C333        C  0.97112921  0.32297952  0.47203661    -0.05700
C334        C  0.00782260  0.33269110  0.45133912     0.00200
C335        C  0.04242284  0.34386580  0.47474306    -0.08400
C336        C  0.03824978  0.34572559  0.51767820    -0.05700
C337        C  0.00136151  0.33633497  0.53829390     0.00200
C338        C  0.96713287  0.32417337  0.51488475    -0.08300
C339        C  0.92651139  0.31158825  0.53432714     0.62100
H340        H  0.94505411  0.31406914  0.45414900     0.12800
H341        H  0.06423567  0.35470769  0.53567106     0.12800
C342        C  0.08364044  0.35414057  0.45520916     0.62300
F343        F  0.89926734  0.29710519  0.50577265    -0.22800
F344        F  0.90840184  0.34494227  0.55333787    -0.20200
F345        F  0.93278735  0.28055980  0.56249309    -0.19800
F346        F  0.11206826  0.36594370  0.48385113    -0.19900
F347        F  0.07929035  0.38612058  0.42774313    -0.20200
F348        F  0.09924033  0.32008013  0.43527794    -0.22900
C349        C  0.02536095  0.36494120  0.85136801    -0.05700
C350        C  0.99556674  0.34182066  0.87201842     0.00200
C351        C  0.96573740  0.32071373  0.84932892    -0.08400
C352        C  0.96814213  0.32208347  0.80633540    -0.05700
C353        C  0.99974680  0.34295411  0.78553533     0.00200
C354        C  0.02885017  0.36514935  0.80846822    -0.08300
C355        C  0.06299383  0.38973660  0.78825346     0.62100
H356        H  0.04642802  0.38251634  0.86929471     0.12800
H357        H  0.94556885  0.30610883  0.78856281     0.12800
C358        C  0.93068758  0.29814889  0.87028792     0.62300
F359        F  0.08462361  0.41241285  0.81635334    -0.22800
F360        F  0.04677251  0.41666971  0.76003801    -0.20200
F361        F  0.09040704  0.36363373  0.76895159    -0.19800
F362        F  0.91081917  0.32399129  0.89753830    -0.19900
F363        F  0.94549959  0.26446073  0.89112058    -0.20200
F364        F  0.90220906  0.28452140  0.84252495    -0.22900
C365        C  0.02609912  0.19625311  0.63697860    -0.05700
C366        C  0.99892921  0.21673588  0.66354496     0.00200
C367        C  0.97290875  0.19369169  0.68982978    -0.08400
C368        C  0.97424288  0.15074382  0.68764852    -0.05700
C369        C  0.00049602  0.13021091  0.66026725     0.00200
C370        C  0.02742557  0.15321323  0.63471837    -0.08300
C371        C  0.05818396  0.13281707  0.60596960     0.62100
H372        H  0.04597635  0.21443370  0.61741876     0.12800
H373        H  0.95415812  0.13268914  0.70711805     0.12800
C374        C  0.94462050  0.21404704  0.72090785     0.62300
F375        F  0.08485150  0.16089804  0.58846210    -0.22800
F376        F  0.03796963  0.11338024  0.57470363    -0.20200
F377        F  0.08125916  0.10448906  0.62715102    -0.19800
F378        F  0.91281934  0.23328850  0.70101465    -0.19900
F379        F  0.96609442  0.24247625  0.74325301    -0.20200
F380        F  0.92798312  0.18598561  0.74819772    -0.22900
C381        C  0.97736390  0.69117077  0.47412108    -0.05700
C382        C  0.00615959  0.66574000  0.45446774     0.00200
C383        C  0.03344666  0.64209110  0.47830206    -0.08400
C384        C  0.03150932  0.64569581  0.52115531    -0.05700
C385        C  0.00302986  0.67146026  0.54087216     0.00200
C386        C  0.97527797  0.69466776  0.51702273    -0.08300
C387        C  0.94425288  0.72378339  0.53629150     0.62100
H388        H  0.95661884  0.70876613  0.45536221     0.12800
H389        H  0.05229110  0.62803302  0.53981195     0.12800
C390        C  0.06376301  0.61232395  0.45892879     0.62300
F391        F  0.92464635  0.74736886  0.50718894    -0.22800
F392        F  0.96351239  0.75012866  0.56279662    -0.20200
F393        F  0.91479810  0.70173665  0.55748066    -0.19800
F394        F  0.09404447  0.63375251  0.43827295    -0.19900
F395        F  0.04387648  0.58691414  0.43191895    -0.20200
F396        F  0.08238744  0.58780756  0.48791184    -0.22900
C397        C  0.97512533  0.53109491  0.64369168    -0.05700
C398        C  0.00781421  0.55024522  0.66339049     0.00200
C399        C  0.03858647  0.52563191  0.68155727    -0.08400
C400        C  0.03497788  0.48278946  0.67968489    -0.05700
C401        C  0.00202655  0.46364780  0.66048718     0.00200
C402        C  0.97173374  0.48821142  0.64149740    -0.08300
C403        C  0.93645574  0.46974672  0.61807322     0.62100
H404        H  0.95209398  0.55020639  0.62963635     0.12800
H405        H  0.05809810  0.46370018  0.69356850     0.12800
C406        C  0.07467088  0.54395979  0.70375737     0.62300
F407        F  0.91509961  0.49911941  0.59634163    -0.22800
F408        F  0.90932341  0.45122854  0.64507580    -0.20200
F409        F  0.95111013  0.44115493  0.59032240    -0.19800
F410        F  0.06081584  0.57149469  0.73275439    -0.19900
F411        F  0.10025886  0.56365741  0.67611261    -0.20200
F412        F  0.09750573  0.51444689  0.72373254    -0.22900
C413        C  0.97746420  0.81699291  0.68821234    -0.05700
C414        C  0.00606233  0.79728532  0.66252557     0.00200
C415        C  0.03176761  0.82111024  0.63653103    -0.08400
C416        C  0.02853613  0.86403765  0.63825035    -0.05700
C417        C  0.00085747  0.88367929  0.66492677     0.00200
C418        C  0.97436367  0.85990120  0.69001468    -0.08300
C419        C  0.94203423  0.87946588  0.71754635     0.62100
H420        H  0.95769279  0.79833630  0.70738965     0.12800
H421        H  0.04821941  0.88281430  0.61905490     0.12800
C422        C  0.06176861  0.80170700  0.60634594     0.62300
F423        F  0.91613349  0.85059249  0.73487394    -0.22800
F424        F  0.91846468  0.90641230  0.69508134    -0.20200
F425        F  0.96054014  0.90029625  0.74900326    -0.19800
F426        F  0.04202611  0.77297966  0.58280563    -0.19900
F427        F  0.09321221  0.78299905  0.62724931    -0.20200
F428        F  0.07886178  0.83042852  0.58003559    -0.22900
C429        C  0.99547147  0.70419902  0.85386109    -0.05700
C430        C  0.00972315  0.66880936  0.87404636     0.00200
C431        C  0.02729880  0.63664371  0.85014074    -0.08400
C432        C  0.02742002  0.64025000  0.80719931    -0.05700
C433        C  0.01135777  0.67458978  0.78737350     0.00200
C434        C  0.99635602  0.70776406  0.81086782    -0.08300
C435        C  0.98263295  0.74715295  0.79038016     0.62100
H436        H  0.98303716  0.72910703  0.87204079     0.12800
H437        H  0.03941848  0.61555327  0.78850510     0.12800
C438        C  0.04665297  0.59889003  0.86924740     0.62300
F439        F  0.97274793  0.77720596  0.81861424    -0.22800
F440        F  0.94854754  0.73989117  0.76698622    -0.20200
F441        F  0.01385048  0.76186327  0.76546594    -0.19800
F442        F  0.01668552  0.57451322  0.88681251    -0.19900
F443        F  0.07430509  0.61047564  0.89862948    -0.20200
F444        F  0.06766368  0.57547919  0.84058650    -0.22900
C445        C  0.80817211  0.96628928  0.35650866    -0.05700
C446        C  0.78698668  0.99406010  0.33159463     0.00200
C447        C  0.80946196  0.02041827  0.30501895    -0.08400
C448        C  0.85247524  0.01788959  0.30455166    -0.05700
C449        C  0.87363991  0.99168301  0.33101943     0.00200
C450        C  0.85121570  0.96503800  0.35728023    -0.08300
C451        C  0.87240291  0.93492751  0.38558197     0.62100
H452        H  0.79057242  0.94627614  0.37644747     0.12800
H453        H  0.87011437  0.03761640  0.28440501     0.12800
C454        C  0.78854749  0.05139645  0.27743268     0.62300
F455        F  0.84505909  0.90777790  0.40348698    -0.22800
F456        F  0.89150728  0.95589383  0.41658924    -0.20200
F457        F  0.90109753  0.91233009  0.36380896    -0.19800
F458        F  0.77098542  0.08199530  0.30099208    -0.19900
F459        F  0.75863564  0.03258231  0.25480493    -0.20200
F460        F  0.81583857  0.06955455  0.25025274    -0.22900
C461        C  0.63447430  0.02215730  0.19444648    -0.05700
C462        C  0.66119070  0.99407856  0.21294702     0.00200
C463        C  0.68627522  0.96862829  0.18797537    -0.08400
C464        C  0.68377180  0.97255203  0.14523940    -0.05700
C465        C  0.65635000  0.99982306  0.12669061     0.00200
C466        C  0.63111243  0.02519449  0.15161982    -0.08300
C467        C  0.60123242  0.05575702  0.13344682     0.62100
H468        H  0.61546453  0.04122970  0.21401994     0.12800
H469        H  0.70274967  0.95340795  0.12571509     0.12800
C470        C  0.71578799  0.93754213  0.20592518     0.62300
F471        F  0.58435949  0.08124183  0.16299632    -0.22800
F472        F  0.56964334  0.03507132  0.11500747    -0.20200
F473        F  0.62097030  0.08013154  0.10476869    -0.19800
F474        F  0.74027764  0.95592448  0.23461462    -0.19900
F475        F  0.74121133  0.92062534  0.17624008    -0.20200
F476        F  0.69405164  0.90607112  0.22425221    -0.22900
C477        C  0.51987451  0.02369238  0.35769216    -0.05700
C478        C  0.53995748  0.99168215  0.33693051     0.00200
C479        C  0.51637147  0.96279711  0.31507784    -0.08400
C480        C  0.47342033  0.96621147  0.31649345    -0.05700
C481        C  0.45335622  0.99828677  0.33724292     0.00200
C482        C  0.47705706  0.02804989  0.35779890    -0.08300
C483        C  0.45777546  0.06433188  0.37993787     0.62100
H484        H  0.53827838  0.04579781  0.37372828     0.12800
H485        H  0.45500815  0.94406840  0.30050337     0.12800
C486        C  0.53604528  0.92964596  0.28876392     0.62300
F487        F  0.48631001  0.08665881  0.40132759    -0.22800
F488        F  0.42843155  0.05089711  0.40767225    -0.20200
F489        F  0.44006445  0.09043886  0.35183279    -0.19800
F490        F  0.55542138  0.90121330  0.31326557    -0.19900
F491        F  0.56414466  0.94702201  0.26192635    -0.20200
F492        F  0.50751352  0.90901388  0.26573078    -0.22900
C493        C  0.18700964  0.02729688  0.30988076    -0.05700
C494        C  0.20645862  0.00125117  0.33784309     0.00200
C495        C  0.18241746  0.97784537  0.36562411    -0.08400
C496        C  0.13956385  0.97948369  0.36253821    -0.05700
C497        C  0.12011722  0.00363130  0.33286644     0.00200
C498        C  0.14412468  0.02901102  0.30680430    -0.08300
C499        C  0.12482770  0.05905014  0.27712686     0.62100
H500        H  0.20580751  0.04614213  0.29008722     0.12800
H501        H  0.12078749  0.96135501  0.38314373     0.12800
C502        C  0.20165216  0.95260165  0.39947122     0.62300
F503        F  0.15370571  0.08426889  0.25875865    -0.22800
F504        F  0.09698878  0.08367556  0.29779082    -0.20200
F505        F  0.10515257  0.03807030  0.24652115    -0.19800
F506        F  0.22799316  0.97678820  0.42161030    -0.19900
F507        F  0.22304448  0.91994283  0.38289131    -0.20200
F508        F  0.17252847  0.93705624  0.42639378    -0.22900
C509        C  0.35461463  0.96708065  0.19386349    -0.05700
C510        C  0.33288676  0.99906769  0.21322569     0.00200
C511        C  0.31341729  0.02924877  0.18871869    -0.08400
C512        C  0.31714861  0.02656936  0.14591141    -0.05700
C513        C  0.33958352  0.99525424  0.12682818     0.00200
C514        C  0.35830043  0.96459621  0.15092262    -0.08300
C515        C  0.38078997  0.92876611  0.13135207     0.62100
H516        H  0.36914278  0.94410314  0.21273999     0.12800
H517        H  0.30258187  0.04925878  0.12670482     0.12800
C518        C  0.28741478  0.06332729  0.20711250     0.62300
F519        F  0.39290607  0.90014409  0.16011641    -0.22800
F520        F  0.41533666  0.94262383  0.11088593    -0.20200
F521        F  0.35551123  0.90935464  0.10396200    -0.19800
F522        F  0.31183488  0.09049487  0.22791870    -0.19900
F523        F  0.25860065  0.04677965  0.23359056    -0.20200
F524        F  0.26674534  0.08526998  0.17750746    -0.22900
C525        C  0.30543948  0.02852510  0.48103799    -0.05700
C526        C  0.33061192  0.00021565  0.46036970     0.00200
C527        C  0.35685132  0.97440648  0.48321547    -0.08400
C528        C  0.35560723  0.97680356  0.52615106    -0.05700
C529        C  0.33038436  0.00494700  0.54688875     0.00200
C530        C  0.30496466  0.03169459  0.52403794    -0.08300
C531        C  0.27724716  0.06329358  0.54447336     0.62100
H532        H  0.28606680  0.04835383  0.46301231     0.12800
H533        H  0.37504531  0.95693331  0.54407208     0.12800
C534        C  0.38741685  0.94570229  0.46263592     0.62300
F535        F  0.25180725  0.08233518  0.51667904    -0.22800
F536        F  0.30070343  0.09316386  0.56253615    -0.20200
F537        F  0.25275570  0.04494532  0.57393556    -0.19800
F538        F  0.41079209  0.96715006  0.43431653    -0.19900
F539        F  0.36705560  0.91440767  0.44325371    -0.20200
F540        F  0.41380756  0.92815907  0.49049885    -0.22900
C541        C  0.31554693  0.97099532  0.86073195    -0.05700
C542        C  0.33878616  0.00088401  0.88040852     0.00200
C543        C  0.35836470  0.03174453  0.85679238    -0.08400
C544        C  0.35549473  0.03024535  0.81385218    -0.05700
C545        C  0.33363104  0.99926142  0.79392082     0.00200
C546        C  0.31234495  0.96964527  0.81785496    -0.08300
C547        C  0.28527696  0.93744087  0.79868664     0.62100
H548        H  0.30012518  0.94821278  0.87944157     0.12800
H549        H  0.37057188  0.05341659  0.79539199     0.12800
C550        C  0.38044033  0.06717437  0.87675313     0.62300
F551        F  0.26189155  0.91696138  0.82777634    -0.22800
F552        F  0.30922246  0.90882166  0.77841607    -0.20200
F553        F  0.25875426  0.95572780  0.77145709    -0.19800
F554        F  0.41396941  0.05291046  0.89782151    -0.19900
F555        F  0.35410048  0.08700241  0.90360305    -0.20200
F556        F  0.39414471  0.09560518  0.84824211    -0.22900
C557        C  0.14394431  0.98169807  0.64066041    -0.05700
C558        C  0.12258027  0.00742871  0.66786724     0.00200
C559        C  0.14482896  0.03169316  0.69585165    -0.08400
C560        C  0.18784964  0.02934529  0.69517674    -0.05700
C561        C  0.20909462  0.00265500  0.66883306     0.00200
C562        C  0.18684880  0.97817709  0.64107610    -0.08300
C563        C  0.20787236  0.94825443  0.61202148     0.62100
H564        H  0.12646689  0.96315292  0.61981972     0.12800
H565        H  0.20536848  0.04759989  0.71623812     0.12800
C566        C  0.12369404  0.05989635  0.72649023     0.62300
F567        F  0.18100024  0.93237656  0.58385531    -0.22800
F568        F  0.22397963  0.91595588  0.63404578    -0.20200
F569        F  0.23892616  0.96747611  0.59043166    -0.19800
F570        F  0.10434489  0.03675986  0.75643177    -0.19900
F571        F  0.09522613  0.08428982  0.70711471    -0.20200
F572        F  0.15116202  0.08552161  0.74550720    -0.22900
C573        C  0.64373009  0.96573912  0.52669110    -0.05700
C574        C  0.66795924  0.99499455  0.54622123     0.00200
C575        C  0.69139062  0.02277448  0.52214865    -0.08400
C576        C  0.68929038  0.02028590  0.47920923    -0.05700
C577        C  0.66446963  0.99145091  0.45972195     0.00200
C578        C  0.64050595  0.96417853  0.48386557    -0.08300
C579        C  0.61002884  0.93497425  0.46497637     0.62100
H580        H  0.62656389  0.94432930  0.54544683     0.12800
H581        H  0.70722170  0.04099748  0.46033019     0.12800
C582        C  0.71946871  0.05407944  0.54138149     0.62300
F583        F  0.58545750  0.91633902  0.49437190    -0.22800
F584        F  0.63048155  0.90451768  0.44366823    -0.20200
F585        F  0.58476205  0.95625475  0.43870702    -0.19800
F586        F  0.74515484  0.03491598  0.56879523    -0.19900
F587        F  0.69648669  0.08354590  0.56153942    -0.20200
F588        F  0.74363046  0.07377519  0.51238149    -0.22900
C589        C  0.52189390  0.01701792  0.69792957    -0.05700
C590        C  0.54214479  0.99358112  0.66796800     0.00200
C591        C  0.51896691  0.97282278  0.63816330    -0.08400
C592        C  0.47597711  0.97593102  0.63984678    -0.05700
C593        C  0.45576754  0.99967117  0.66965864     0.00200
C594        C  0.47896998  0.02018480  0.69959001    -0.08300
C595        C  0.45854393  0.04355508  0.73436704     0.62100
H596        H  0.54014386  0.03256893  0.72041692     0.12800
H597        H  0.45771221  0.96037301  0.61738545     0.12800
C598        C  0.53949465  0.94956407  0.60339718     0.62300
F599        F  0.48663930  0.05786848  0.76216377    -0.22800
F600        F  0.43175335  0.01793898  0.75504833    -0.20200
F601        F  0.43743292  0.07691099  0.71921407    -0.19800
F602        F  0.56133331  0.91669004  0.61857915    -0.19900
F603        F  0.56565387  0.97556527  0.58242184    -0.20200
F604        F  0.51144111  0.93460342  0.57588434    -0.22900
C605        C  0.80897719  0.98337900  0.63325786    -0.05700
C606        C  0.78874806  0.99717508  0.66871069     0.00200
C607        C  0.81172042  0.01308041  0.70124777    -0.08400
C608        C  0.85446377  0.01585271  0.69665321    -0.05700
C609        C  0.87522707  0.00277510  0.66088944     0.00200
C610        C  0.85191701  0.98580190  0.62854765    -0.08300
C611        C  0.87169157  0.96962974  0.58946746     0.62100
H612        H  0.79055756  0.97118079  0.60887963     0.12800
H613        H  0.87205960  0.02847050  0.72139589     0.12800
C614        C  0.79118178  0.02573430  0.74121942     0.62300
F615        F  0.90100875  0.94056020  0.59882271    -0.22800
F616        F  0.88953512  0.00153361  0.56788880    -0.20200
F617        F  0.84350870  0.95131540  0.56417891    -0.19800
F618        F  0.76852671  0.99338699  0.75673368    -0.19900
F619        F  0.76560154  0.05881091  0.73468880    -0.20200
F620        F  0.81935998  0.03680203  0.77038226    -0.22900
C621        C  0.68270361  0.02435990  0.81356023    -0.05700
C622        C  0.66067753  0.99378585  0.79335128     0.00200
C623        C  0.63639056  0.96609915  0.81683664    -0.08400
C624        C  0.63633289  0.96934431  0.85985487    -0.05700
C625        C  0.65939988  0.99914836  0.87990003     0.00200
C626        C  0.68233824  0.02777112  0.85646661    -0.08300
C627        C  0.70482746  0.06293796  0.87644408     0.62100
H628        H  0.70053314  0.04567613  0.79529324     0.12800
H629        H  0.61860302  0.94813975  0.87837475     0.12800
C630        C  0.60958478  0.93413347  0.79690108     0.62300
F631        F  0.72122831  0.08972745  0.84776059    -0.22800
F632        F  0.73657138  0.04806262  0.89972820    -0.20200
F633        F  0.67800099  0.08480390  0.90118014    -0.19800
F634        F  0.63373739  0.90484382  0.77789349    -0.19900
F635        F  0.58462766  0.95263390  0.76837871    -0.20200
F636        F  0.58468403  0.91433523  0.82521903    -0.22900
C637        C  0.30954084  0.85374408  0.02396680    -0.05700
C638        C  0.34225298  0.87319401  0.00343341     0.00200
C639        C  0.37313276  0.84877249  0.98436566    -0.08400
C640        C  0.36954140  0.80584917  0.98624713    -0.05700
C641        C  0.33697699  0.78675537  0.00693923     0.00200
C642        C  0.30639871  0.81086886  0.02623407    -0.08300
C643        C  0.26992952  0.79147722  0.04791496     0.62100
H644        H  0.28636257  0.87254066  0.03870622     0.12800
H645        H  0.39254331  0.78656414  0.97182289     0.12800
C646        C  0.40933703  0.86734752  0.96142506     0.62300
F647        F  0.24179504  0.82049895  0.06112855    -0.22800
F648        F  0.28286868  0.76975698  0.08173516    -0.20200
F649        F  0.25032772  0.76529134  0.02148905    -0.19800
F650        F  0.43440988  0.88734442  0.98855733    -0.19900
F651        F  0.39566134  0.89467197  0.93218085    -0.20200
F652        F  0.43273506  0.83785535  0.94162134    -0.22900
C653        C  0.19053346  0.68460089  0.03278613    -0.05700
C654        C  0.21223374  0.66154930  0.00347860     0.00200
C655        C  0.19032372  0.63728183  0.97530223    -0.08400
C656        C  0.14729895  0.63909648  0.97587288    -0.05700
C657        C  0.12567100  0.66381576  0.00377105     0.00200
C658        C  0.14747859  0.68595379  0.03366662    -0.08300
C659        C  0.12553935  0.70886420  0.06785033     0.62100
H660        H  0.20761047  0.70180286  0.05485688     0.12800
H661        H  0.13021783  0.62159629  0.95416018     0.12800
C662        C  0.21189988  0.60842533  0.94561094     0.62300
F663        F  0.15247907  0.72396521  0.09638039    -0.22800
F664        F  0.09903055  0.68247342  0.08787484    -0.20200
F665        F  0.10388110  0.74160755  0.05217205    -0.19800
F666        F  0.23968115  0.58428768  0.96635382    -0.19900
F667        F  0.23210108  0.63068052  0.91557500    -0.20200
F668        F  0.18467752  0.58257450  0.92655289    -0.22900
C669        C  0.52530824  0.64055623  0.02696429    -0.05700
C670        C  0.54503409  0.66562571  0.99787494     0.00200
C671        C  0.52122171  0.68880672  0.97007559    -0.08400
C672        C  0.47837032  0.68736247  0.97388497    -0.05700
C673        C  0.45868560  0.66285540  0.00343795     0.00200
C674        C  0.48243146  0.63786448  0.02960416    -0.08300
C675        C  0.46295227  0.60706851  0.05878232     0.62100
H676        H  0.54394889  0.62238753  0.04733789     0.12800
H677        H  0.45966815  0.70555090  0.95359654     0.12800
C678        C  0.54050944  0.71547672  0.93691441     0.62300
F679        F  0.49176921  0.58121676  0.07584258    -0.22800
F680        F  0.43537613  0.58305112  0.03798443    -0.20200
F681        F  0.44293486  0.62730283  0.09029254    -0.19800
F682        F  0.56085865  0.69113096  0.90867363    -0.19900
F683        F  0.56768459  0.74261190  0.95410956    -0.20200
F684        F  0.51155463  0.73807371  0.91601022    -0.22900
C685        C  0.64519827  0.80974324  0.03338132    -0.05700
C686        C  0.66340913  0.79077480  0.99894766     0.00200
C687        C  0.67737762  0.81579739  0.96581939    -0.08400
C688        C  0.67336827  0.85855788  0.96910525    -0.05700
C689        C  0.65523938  0.87707673  0.00335889     0.00200
C690        C  0.64059742  0.85257784  0.03605383    -0.08300
C691        C  0.62125117  0.87170464  0.07392284     0.62100
H692        H  0.63415126  0.79065930  0.05827435     0.12800
H693        H  0.68425084  0.87825669  0.94458354     0.12800
C694        C  0.69689573  0.79824354  0.92717288     0.62300
F695        F  0.61095051  0.84258032  0.10312106    -0.22800
F696        F  0.58601820  0.89249556  0.06339786    -0.20200
F697        F  0.64833729  0.89879131  0.09126689    -0.19800
F698        F  0.66807517  0.77654892  0.90560393    -0.19900
F699        F  0.72919825  0.77283953  0.93719400    -0.20200
F700        F  0.71201941  0.82857818  0.90149583    -0.22900
C701        C  0.81255299  0.69248748  0.97393064    -0.05700
C702        C  0.79192848  0.66537716  0.00041218     0.00200
C703        C  0.81501550  0.63773097  0.02459214    -0.08400
C704        C  0.85806457  0.63863523  0.02142675    -0.05700
C705        C  0.87872879  0.66681425  0.99607747     0.00200
C706        C  0.85559112  0.69411709  0.97160395    -0.08300
C707        C  0.87598481  0.72433803  0.94247364     0.62100
H708        H  0.79446864  0.71316961  0.95550576     0.12800
H709        H  0.87610215  0.61764936  0.03947444     0.12800
C710        C  0.79459546  0.60678195  0.05298682     0.62300
F711        F  0.84796582  0.74331696  0.91726163    -0.22800
F712        F  0.90425189  0.70422871  0.91782416    -0.20200
F713        F  0.89541002  0.75444158  0.96453255    -0.19800
F714        F  0.82268844  0.58034094  0.07035773    -0.19900
F715        F  0.76702593  0.58349743  0.03149518    -0.20200
F716        F  0.77430334  0.62689319  0.08440630    -0.22900
C717        C  0.35066289  0.47313645  0.97189745    -0.05700
C718        C  0.33356785  0.45302867  0.00614743     0.00200
C719        C  0.31809383  0.47687212  0.03926908    -0.08400
C720        C  0.31975575  0.51979254  0.03625086    -0.05700
C721        C  0.33633391  0.53992196  0.00182583     0.00200
C722        C  0.35270204  0.51612298  0.96909252    -0.08300
C723        C  0.37313545  0.53538249  0.93166758     0.62100
H724        H  0.36278853  0.45469362  0.94706239     0.12800
H725        H  0.30760035  0.53820853  0.06108091     0.12800
C726        C  0.29910659  0.45775782  0.07751716     0.62300
F727        F  0.39128820  0.50634164  0.90648080    -0.22800
F728        F  0.40335801  0.56214728  0.94373253    -0.20200
F729        F  0.34440031  0.55615251  0.90883165    -0.19800
F730        F  0.32865762  0.43660681  0.09896634    -0.19900
F731        F  0.26799975  0.43143292  0.06678894    -0.20200
F732        F  0.28249897  0.48688885  0.10360504    -0.22900
C733        C  0.18900280  0.35812877  0.97335408    -0.05700
C734        C  0.20718123  0.33271046  0.00271599     0.00200
C735        C  0.18174302  0.30982926  0.02989857    -0.08400
C736        C  0.13894209  0.31274402  0.02590027    -0.05700
C737        C  0.12085129  0.33857088  0.99684094     0.00200
C738        C  0.14627362  0.36203051  0.97033089    -0.08300
C739        C  0.12849815  0.39002818  0.93804454     0.62100
H740        H  0.20875379  0.37565453  0.95307447     0.12800
H741        H  0.11902580  0.29534898  0.04613765     0.12800
C742        C  0.19934521  0.28199393  0.06262386     0.62300
F743        F  0.15835125  0.40597745  0.91220584    -0.22800
F744        F  0.10827162  0.42242920  0.95654295    -0.20200
F745        F  0.10155226  0.36815025  0.91455893    -0.19800
F746        F  0.21858450  0.30527449  0.09187079    -0.19900
F747        F  0.22713564  0.25496718  0.04519536    -0.20200
F748        F  0.16930804  0.25921730  0.08228625    -0.22900
C749        C  0.35533451  0.18668043  0.03156391    -0.05700
C750        C  0.33133974  0.20605249  0.00186435     0.00200
C751        C  0.30911700  0.18185903  0.97389909    -0.08400
C752        C  0.31235689  0.13900914  0.97659499    -0.05700
C753        C  0.33743677  0.11984431  0.00541283     0.00200
C754        C  0.35922813  0.14389790  0.03368316    -0.08300
C755        C  0.38533224  0.12463695  0.06674200     0.62100
H756        H  0.37162173  0.20564257  0.05321692     0.12800
H757        H  0.29558303  0.11981762  0.95551724     0.12800
C758        C  0.28121526  0.20078302  0.94217047     0.62300
F759        F  0.39993559  0.15357579  0.09370799    -0.22800
F760        F  0.41863835  0.10496846  0.04916002    -0.20200
F761        F  0.36237699  0.09670269  0.08900099    -0.19800
F762        F  0.30426147  0.22142751  0.91302727    -0.19900
F763        F  0.25415984  0.22770599  0.96087076    -0.20200
F764        F  0.25851240  0.17143695  0.92219721    -0.22900
C765        C  0.68814163  0.47654362  0.97389441    -0.05700
C766        C  0.66389581  0.45686837  0.00366723     0.00200
C767        C  0.64021518  0.48074811  0.03145495    -0.08400
C768        C  0.64299540  0.52372787  0.02912160    -0.05700
C769        C  0.66734176  0.54340012  0.99929277     0.00200
C770        C  0.69004723  0.51941641  0.97077545    -0.08300
C771        C  0.71626346  0.53848177  0.93705525     0.62100
H772        H  0.70560830  0.45778936  0.95266195     0.12800
H773        H  0.62547924  0.54247126  0.05032681     0.12800
C774        C  0.61097960  0.46134480  0.06237429     0.62300
F775        F  0.74010374  0.50957408  0.91694264    -0.22800
F776        F  0.74227983  0.56732440  0.95321316    -0.20200
F777        F  0.69136310  0.55688261  0.90845917    -0.19800
F778        F  0.63282791  0.44103447  0.09216010    -0.19900
F779        F  0.58560308  0.43397116  0.04293317    -0.20200
F780        F  0.58643287  0.49029813  0.08159410    -0.22900
C781        C  0.47407962  0.35157349  0.97412516    -0.05700
C782        C  0.45414711  0.32891436  0.00499991     0.00200
C783        C  0.47790056  0.30823203  0.03479380    -0.08400
C784        C  0.52076810  0.31091579  0.03216314    -0.05700
C785        C  0.54064773  0.33338685  0.00116452     0.00200
C786        C  0.51693518  0.35464040  0.97179053    -0.08300
C787        C  0.53626684  0.38156962  0.93883337     0.62100
H788        H  0.45558632  0.36746480  0.95185809     0.12800
H789        H  0.53931992  0.29499616  0.05435794     0.12800
C790        C  0.45863549  0.28244318  0.06863358     0.62300
F791        F  0.50730639  0.40424695  0.91804264    -0.22800
F792        F  0.55689157  0.35756085  0.91050794    -0.20200
F793        F  0.56318073  0.40879089  0.95634200    -0.19800
F794        F  0.43216584  0.25437056  0.05193602    -0.19900
F795        F  0.43759652  0.30734730  0.09585993    -0.20200
F796        F  0.48760682  0.26085773  0.09052754    -0.22900
C797        C  0.80567147  0.37157923  0.98708833    -0.05700
C798        C  0.78677591  0.33517448  0.99957817     0.00200
C799        C  0.81084037  0.30084263  0.00982256    -0.08400
C800        C  0.85366640  0.30450225  0.00844723    -0.05700
C801        C  0.87323040  0.34119224  0.99660506     0.00200
C802        C  0.84858293  0.37546047  0.98523796    -0.08300
C803        C  0.86668442  0.41580035  0.97043963     0.62100
H804        H  0.78622420  0.39718317  0.97895854     0.12800
H805        H  0.87220698  0.27835649  0.01681197     0.12800
C806        C  0.79112700  0.26022043  0.02088876     0.62300
F807        F  0.83685036  0.44293270  0.95751944    -0.22800
F808        F  0.89301274  0.40889113  0.93769118    -0.20200
F809        F  0.88748985  0.43437721  0.00187074    -0.19800
F810        F  0.76654810  0.24766655  0.98920915    -0.19900
F811        F  0.76757613  0.26455457  0.05604024    -0.20200
F812        F  0.81988667  0.22986181  0.02775751    -0.22900
C813        C  0.63351879  0.14478196  0.97766862    -0.05700
C814        C  0.66187878  0.12358692  0.00180787     0.00200
C815        C  0.69047239  0.14612269  0.02505093    -0.08400
C816        C  0.68948252  0.18913188  0.02307671    -0.05700
C817        C  0.66186605  0.21020562  0.99819410     0.00200
C818        C  0.63307688  0.18785240  0.97521477    -0.08300
C819        C  0.60101805  0.20923755  0.94950057     0.62100
H820        H  0.61187190  0.12716670  0.96023375     0.12800
H821        H  0.71086181  0.20685594  0.04069100     0.12800
C822        C  0.72159955  0.12534299  0.05240792     0.62300
F823        F  0.57369596  0.18177995  0.93293575    -0.22800
F824        F  0.61966756  0.23009764  0.91752640    -0.20200
F825        F  0.57900271  0.23653847  0.97349519    -0.19800
F826        F  0.75059305  0.10529678  0.02862099    -0.19900
F827        F  0.70232194  0.09754708  0.07810506    -0.20200
F828        F  0.74185837  0.15320181  0.07664603    -0.22900
loop_ 
_geom_bond_atom_site_label_1 
_geom_bond_atom_site_label_2 
_geom_bond_distance 
_geom_bond_site_symmetry_2 
_ccdc_geom_bond_type 
O1           Ni9   1.918       .  S
O1           C11   1.280       .  A
O2           Ni9   1.917       .  S
O2           C12   1.281   1_554  A
O3           Ni9   1.922       .  S
O3           C13   1.282       .  A
O4           Ni9   1.919       .  S
O4           C14   1.283       .  A
O5          Ni10   1.910       .  S
O5           C14   1.278   1_556  A
O6          Ni10   1.915       .  S
O6           C13   1.280   1_556  A
O7          Ni10   1.920       .  S
O7           C12   1.281       .  A
O8          Ni10   1.915       .  S
O8           C11   1.282   1_556  A
Ni9         Ni10   2.387   1_554  S
C11         C766   1.483       .  S
C12         C817   1.481       .  S
C13         C798   1.474   1_554  S
C14         C785   1.484       .  S
O15         Ni23   1.913       .  S
O15          C25   1.278       .  A
O16         Ni23   1.918       .  S
O16          C26   1.280       .  A
O17         Ni23   1.913       .  S
O17          C27   1.281       .  A
O18         Ni23   1.912       .  S
O18          C28   1.279       .  A
O19         Ni24   1.918       .  S
O19          C28   1.282   1_556  A
O20         Ni24   1.918       .  S
O20          C27   1.280   1_556  A
O21         Ni24   1.923       .  S
O21          C26   1.283   1_556  A
O22         Ni24   1.921       .  S
O22          C25   1.283   1_556  A
Ni23        Ni24   2.383   1_554  S
C25         C782   1.487       .  S
C26         C734   1.489       .  S
C27         C750   1.481       .  S
C28         C718   1.491       .  S
O29         Ni37   1.919       .  S
O29          C39   1.282   1_554  A
O30         Ni37   1.925       .  S
O30          C40   1.282       .  A
O31         Ni37   1.925       .  S
O31          C41   1.284   1_554  A
O32         Ni37   1.920       .  S
O32          C42   1.282   1_554  A
O33         Ni38   1.912       .  S
O33          C42   1.279       .  A
O34         Ni38   1.913       .  S
O34          C41   1.279       .  A
O35         Ni38   1.922       .  S
O35          C40   1.282   1_556  A
O36         Ni38   1.915       .  S
O36          C39   1.279       .  A
Ni37        Ni38   2.383   1_554  S
C39         C670   1.483       .  S
C40         C702   1.489       .  S
C41         C686   1.495       .  S
C42         C769   1.484       .  S
O43         Ni51   1.916       .  S
O43          C53   1.279   1_556  A
O44         Ni51   1.917       .  S
O44          C54   1.281   1_556  A
O45         Ni51   1.911       .  S
O45          C55   1.280   1_556  A
O46         Ni51   1.913       .  S
O46          C56   1.279   1_556  A
O47         Ni52   1.923       .  S
O47          C56   1.283       .  A
O48         Ni52   1.921       .  S
O48          C55   1.281       .  A
O49         Ni52   1.919       .  S
O49          C54   1.280       .  A
O50         Ni52   1.916       .  S
O50          C53   1.282       .  A
Ni51        Ni52   2.385   1_556  S
C53         C721   1.491       .  S
C54         C641   1.477       .  S
C55         C673   1.481       .  S
C56         C654   1.484       .  S
O57         Ni65   1.926       .  S
O57          C67   1.282       .  A
O58         Ni65   1.929       .  S
O58          C68   1.283       .  A
O59         Ni65   1.924       .  S
O59          C69   1.281       .  A
O60         Ni65   1.917       .  S
O60          C70   1.281       .  A
O61         Ni66   1.920       .  S
O61          C70   1.281   1_545  A
O62         Ni66   1.919       .  S
O62          C69   1.282   1_545  A
O63         Ni66   1.917       .  S
O63          C68   1.280   1_545  A
O64         Ni66   1.917       .  S
O64          C67   1.281   1_545  A
Ni65        Ni66   2.386   1_565  S
C67         C590   1.483       .  S
C68         C606   1.481       .  S
C69         C622   1.489       .  S
C70         C574   1.485       .  S
O71         Ni79   1.919       .  S
O71          C81   1.283   1_565  A
O72         Ni79   1.923       .  S
O72          C82   1.282       .  A
O73         Ni79   1.916       .  S
O73          C83   1.279   1_565  A
O74         Ni79   1.917       .  S
O74          C84   1.280   1_565  A
O75         Ni80   1.926       .  S
O75          C84   1.282       .  A
O76         Ni80   1.923       .  S
O76          C83   1.283       .  A
O77         Ni80   1.918       .  S
O77          C82   1.281   1_545  A
O78         Ni80   1.920       .  S
O78          C81   1.280       .  A
Ni79        Ni80   2.385   1_565  S
C81         C529   1.484       .  S
C82         C545   1.490       .  S
C83         C561   1.484       .  S
C84         C593   1.483   1_545  S
O85         Ni93   1.920       .  S
O85          C95   1.282       .  A
O86         Ni93   1.922       .  S
O86          C96   1.281   1_565  A
O87         Ni93   1.923       .  S
O87          C97   1.283       .  A
O88         Ni93   1.919       .  S
O88          C98   1.280       .  A
O89         Ni94   1.920       .  S
O89          C98   1.282   1_545  A
O90         Ni94   1.918       .  S
O90          C97   1.280   1_545  A
O91         Ni94   1.918       .  S
O91          C96   1.281       .  A
O92         Ni94   1.916       .  S
O92          C95   1.280   1_545  A
Ni93        Ni94   2.384   1_565  S
C95         C481   1.489       .  S
C96         C494   1.483       .  S
C97         C510   1.491       .  S
C98         C526   1.484   1_565  S
O99        Ni107   1.919       .  S
O99         C109   1.280       .  A
O100       Ni107   1.918       .  S
O100        C110   1.280       .  A
O101       Ni107   1.923       .  S
O101        C111   1.283       .  A
O102       Ni107   1.921       .  S
O102        C112   1.281       .  A
O103       Ni108   1.916       .  S
O103        C112   1.282   1_545  A
O104       Ni108   1.919       .  S
O104        C111   1.280   1_545  A
O105       Ni108   1.918       .  S
O105        C110   1.282   1_545  A
O106       Ni108   1.921       .  S
O106        C109   1.282   1_545  A
Ni107      Ni108   2.384   1_565  S
C109        C577   1.486       .  S
C110        C462   1.483       .  S
C111        C446   1.486       .  S
C112        C478   1.489       .  S
O113       Ni121   1.915       .  S
O113        C123   1.279       .  A
O114       Ni121   1.918       .  S
O114        C124   1.280       .  A
O115       Ni121   1.925       .  S
O115        C125   1.282       .  A
O116       Ni121   1.920       .  S
O116        C126   1.283       .  A
O117       Ni122   1.919       .  S
O117        C126   1.280   1_655  A
O118       Ni122   1.920       .  S
O118        C125   1.281   1_655  A
O119       Ni122   1.916       .  S
O119        C124   1.281   1_655  A
O120       Ni122   1.919       .  S
O120        C123   1.283   1_655  A
Ni121      Ni122   2.386   1_455  S
C123        C398   1.488       .  S
C124        C414   1.482       .  S
C125        C433   1.481       .  S
C126        C385   1.485       .  S
O127       Ni135   1.916       .  S
O127        C137   1.282       .  A
O128       Ni135   1.917       .  S
O128        C138   1.280       .  A
O129       Ni135   1.919       .  S
O129        C139   1.282   1_455  A
O130       Ni135   1.919       .  S
O130        C140   1.283       .  A
O131       Ni136   1.913       .  S
O131        C140   1.279   1_655  A
O132       Ni136   1.916       .  S
O132        C139   1.280       .  A
O133       Ni136   1.917       .  S
O133        C138   1.282   1_655  A
O134       Ni136   1.916       .  S
O134        C137   1.280   1_655  A
Ni135      Ni136   2.382   1_455  S
C137        C337   1.496       .  S
C138        C353   1.486   1_455  S
C139        C366   1.481       .  S
C140        C401   1.487       .  S
O141       Ni149   1.918       .  S
O141        C151   1.281   1_655  A
O142       Ni149   1.919       .  S
O142        C152   1.281   1_655  A
O143       Ni149   1.917       .  S
O143        C153   1.282   1_655  A
O144       Ni149   1.918       .  S
O144        C154   1.280   1_655  A
O145       Ni150   1.919       .  S
O145        C154   1.283       .  A
O146       Ni150   1.919       .  S
O146        C153   1.280       .  A
O147       Ni150   1.917       .  S
O147        C152   1.280       .  A
O148       Ni150   1.917       .  S
O148        C151   1.280       .  A
Ni149      Ni150   2.385   1_655  S
C151        C382   1.483       .  S
C152        C318   1.480       .  S
C153        C286   1.485       .  S
C154        C305   1.492       .  S
O155       Ni163   1.919       .  S
O155        C165   1.282       .  A
O156       Ni163   1.918       .  S
O156        C166   1.280       .  A
O157       Ni163   1.919       .  S
O157        C167   1.282       .  A
O158       Ni163   1.920       .  S
O158        C168   1.280       .  A
O159       Ni164   1.913       .  S
O159        C168   1.282   1_655  A
O160       Ni164   1.915       .  S
O160        C167   1.279   1_655  A
O161       Ni164   1.916       .  S
O161        C166   1.281   1_655  A
O162       Ni164   1.916       .  S
O162        C165   1.280   1_655  A
Ni163      Ni164   2.383   1_455  S
C165        C289   1.484       .  S
C166        C254   1.485       .  S
C167        C273   1.477   1_455  S
C168        C334   1.497       .  S
O169       Ni177   1.921       .  S
O169        C179   1.280       .  A
O170       Ni177   1.923   1_455  S
O170        C180   1.281       .  A
O171       Ni177   1.918       .  S
O171        C181   1.281       .  A
O172       Ni177   1.916   1_554  S
O172        C182   1.280       .  A
O173       Ni178   1.916   1_554  S
O173        C182   1.281       .  A
O174       Ni178   1.918       .  S
O174        C181   1.280       .  A
O175       Ni178   1.924   1_455  S
O175        C180   1.283       .  A
O176       Ni178   1.919       .  S
O176        C179   1.283       .  A
Ni177      Ni178   2.384       .  S
C179        C801   1.498       .  S
C180        C737   1.488       .  S
C181        C350   1.479       .  S
C182        C270   1.485       .  S
O183       Ni191   1.920   1_554  S
O183        C193   1.280       .  A
O184       Ni191   1.922   1_655  S
O184        C194   1.281       .  A
O185       Ni191   1.920   1_654  S
O185        C195   1.282       .  A
O186       Ni191   1.924       .  S
O186        C196   1.283       .  A
O187       Ni192   1.922       .  S
O187        C196   1.281       .  A
O188       Ni192   1.919   1_554  S
O188        C195   1.280   1_455  A
O189       Ni192   1.925   1_655  S
O189        C194   1.283       .  A
O190       Ni192   1.923       .  S
O190        C193   1.282   1_556  A
Ni191      Ni192   2.382       .  S
C193        C657   1.484       .  S
C194        C705   1.490       .  S
C195        C321   1.489       .  S
C196        C430   1.497       .  S
O197       Ni205   1.925       .  S
O197        C207   1.283       .  A
O198       Ni205   1.927   1_445  S
O198        C208   1.283       .  A
O199       Ni205   1.917   1_455  S
O199        C209   1.281       .  A
O200       Ni205   1.915   1_545  S
O200        C210   1.279       .  A
O201       Ni206   1.922   1_545  S
O201        C210   1.283       .  A
O202       Ni206   1.921       .  S
O202        C209   1.281   1_655  A
O203       Ni206   1.912   1_445  S
O203        C208   1.280       .  A
O204       Ni206   1.916       .  S
O204        C207   1.280       .  A
Ni205      Ni206   2.387       .  S
C207        C449   1.485       .  S
C208        C497   1.485       .  S
C209        C302   1.477       .  S
C210        C257   1.478       .  S
O211       Ni219   1.913   1_455  S
O211        C221   1.279       .  A
O212       Ni219   1.913       .  S
O212        C222   1.281       .  A
O213       Ni219   1.917   1_565  S
O213        C223   1.280       .  A
O214       Ni219   1.918       .  S
O214        C224   1.282       .  A
O215       Ni220   1.916       .  S
O215        C224   1.279   1_455  A
O216       Ni220   1.913   1_565  S
O216        C223   1.280   1_455  A
O217       Ni220   1.933   1_655  S
O217        C222   1.284       .  A
O218       Ni220   1.926       .  S
O218        C221   1.284       .  A
Ni219      Ni220   2.384   1_655  S
C221        C558   1.486       .  S
C222        C609   1.501       .  S
C223        C417   1.479   1_655  S
C224        C369   1.482   1_655  S
O225       Ni233   1.925   1_566  S
O225        C235   1.282       .  A
O226       Ni233   1.922       .  S
O226        C236   1.281       .  A
O227       Ni233   1.925       .  S
O227        C237   1.284       .  A
O228       Ni233   1.926   1_565  S
O228        C238   1.282       .  A
O229       Ni234   1.910       .  S
O229        C238   1.279       .  A
O230       Ni234   1.910   1_545  S
O230        C237   1.278       .  A
O231       Ni234   1.917       .  S
O231        C236   1.282   1_565  A
O232       Ni234   1.917   1_556  S
O232        C235   1.280       .  A
Ni233      Ni234   2.387   1_545  S
C235        C625   1.482       .  S
C236        C465   1.484   1_545  S
C237        C814   1.485       .  S
C238        C689   1.475       .  S
O239       Ni247   1.924       .  S
O239        C249   1.282       .  A
O240       Ni247   1.927   1_556  S
O240        C250   1.282       .  A
O241       Ni247   1.916   1_545  S
O241        C251   1.280       .  A
O242       Ni247   1.917       .  S
O242        C252   1.280       .  A
O243       Ni248   1.916       .  S
O243        C252   1.282       .  A
O244       Ni248   1.914   1_545  S
O244        C251   1.281       .  A
O245       Ni248   1.915   1_556  S
O245        C250   1.280       .  A
O246       Ni248   1.915       .  S
O246        C249   1.280       .  A
Ni247      Ni248   2.387       .  S
C249        C513   1.478       .  S
C250        C542   1.482   1_565  S
C251        C753   1.476       .  S
C252        C638   1.489       .  S
C253        C254   1.406   1_655  A
C253        C258   1.407       .  A
C253        H260   1.083       .  S
C254        C255   1.421       .  A
C255        C256   1.407       .  A
C255        C262   1.520       .  S
C256        C257   1.401   1_455  A
C256        H261   1.083       .  S
C257        C258   1.416       .  A
C258        C259   1.518       .  S
C259        F263   1.385       .  S
C259        F264   1.382       .  S
C259        F265   1.382       .  S
C262        F266   1.383       .  S
C262        F267   1.383       .  S
C262        F268   1.385       .  S
C269        C270   1.406       .  A
C269        C274   1.407       .  A
C269        H276   1.083       .  S
C270        C271   1.421   1_655  A
C271        C272   1.407       .  A
C271        C278   1.520       .  S
C272        C273   1.401   1_455  A
C272        H277   1.083       .  S
C273        C274   1.416       .  A
C274        C275   1.519       .  S
C275        F279   1.385       .  S
C275        F280   1.382       .  S
C275        F281   1.383       .  S
C278        F282   1.383       .  S
C278        F283   1.384       .  S
C278        F284   1.385       .  S
C285        C286   1.404   1_655  A
C285        C290   1.406       .  A
C285        H292   1.083       .  S
C286        C287   1.420       .  A
C287        C288   1.409       .  A
C287        C294   1.520       .  S
C288        C289   1.404       .  A
C288        H293   1.083       .  S
C289        C290   1.420   1_455  A
C290        C291   1.521       .  S
C291        F295   1.385       .  S
C291        F296   1.384       .  S
C291        F297   1.382       .  S
C294        F298   1.383       .  S
C294        F299   1.383       .  S
C294        F300   1.385       .  S
C301        C302   1.400   1_655  A
C301        C306   1.408       .  A
C301        H308   1.083       .  S
C302        C303   1.413       .  A
C303        C304   1.407       .  A
C303        C310   1.518       .  S
C304        C305   1.408       .  A
C304        H309   1.083       .  S
C305        C306   1.425   1_455  A
C306        C307   1.521       .  S
C307        F311   1.385       .  S
C307        F312   1.383       .  S
C307        F313   1.383       .  S
C310        F314   1.382       .  S
C310        F315   1.383       .  S
C310        F316   1.385       .  S
C317        C318   1.402   1_655  A
C317        C322   1.409       .  A
C317        H324   1.083       .  S
C318        C319   1.416       .  A
C319        C320   1.406       .  A
C319        C326   1.520       .  S
C320        C321   1.406   1_455  A
C320        H325   1.082       .  S
C321        C322   1.422       .  A
C322        C323   1.519       .  S
C323        F327   1.385       .  S
C323        F328   1.383       .  S
C323        F329   1.382       .  S
C326        F330   1.382       .  S
C326        F331   1.383       .  S
C326        F332   1.385       .  S
C333        C334   1.407   1_655  A
C333        C338   1.406       .  A
C333        H340   1.082       .  S
C334        C335   1.424       .  A
C335        C336   1.410       .  A
C335        C342   1.522       .  S
C336        C337   1.408       .  A
C336        H341   1.082       .  S
C337        C338   1.423   1_455  A
C338        C339   1.522       .  S
C339        F343   1.385       .  S
C339        F344   1.383       .  S
C339        F345   1.384       .  S
C342        F346   1.385       .  S
C342        F347   1.384       .  S
C342        F348   1.383       .  S
C349        C350   1.400   1_455  A
C349        C354   1.406       .  A
C349        H356   1.079       .  S
C350        C351   1.416       .  A
C351        C352   1.407       .  A
C351        C358   1.519       .  S
C352        C353   1.407       .  A
C352        H357   1.082       .  S
C353        C354   1.422   1_655  A
C354        C355   1.520       .  S
C355        F359   1.385       .  S
C355        F360   1.382       .  S
C355        F361   1.383       .  S
C358        F362   1.383       .  S
C358        F363   1.382       .  S
C358        F364   1.385       .  S
C365        C366   1.404   1_455  A
C365        C370   1.408       .  A
C365        H372   1.083       .  S
C366        C367   1.418       .  A
C367        C368   1.405       .  A
C367        C374   1.518       .  S
C368        C369   1.403   1_655  A
C368        H373   1.083       .  S
C369        C370   1.421       .  A
C370        C371   1.521       .  S
C371        F375   1.385       .  S
C371        F376   1.382       .  S
C371        F377   1.382       .  S
C374        F378   1.382       .  S
C374        F379   1.383       .  S
C374        F380   1.385       .  S
C381        C382   1.404   1_655  A
C381        C386   1.408       .  A
C381        H388   1.083       .  S
C382        C383   1.418       .  A
C383        C384   1.407       .  A
C383        C390   1.520       .  S
C384        C385   1.405       .  A
C384        H389   1.083       .  S
C385        C386   1.420   1_455  A
C386        C387   1.520       .  S
C387        F391   1.385       .  S
C387        F392   1.382       .  S
C387        F393   1.382       .  S
C390        F394   1.382       .  S
C390        F395   1.384       .  S
C390        F396   1.385       .  S
C397        C398   1.405   1_655  A
C397        C402   1.407       .  A
C397        H404   1.083       .  S
C398        C399   1.421       .  A
C399        C400   1.406       .  A
C399        C406   1.519       .  S
C400        C401   1.404       .  A
C400        H405   1.082       .  S
C401        C402   1.421   1_455  A
C402        C403   1.521       .  S
C403        F407   1.385       .  S
C403        F408   1.383       .  S
C403        F409   1.384       .  S
C406        F410   1.380       .  S
C406        F411   1.382       .  S
C406        F412   1.385       .  S
C413        C414   1.404   1_655  A
C413        C418   1.406       .  A
C413        H420   1.083       .  S
C414        C415   1.420       .  A
C415        C416   1.407       .  A
C415        C422   1.520       .  S
C416        C417   1.404       .  A
C416        H421   1.083       .  S
C417        C418   1.417   1_455  A
C418        C419   1.520       .  S
C419        F423   1.385       .  S
C419        F424   1.384       .  S
C419        F425   1.382       .  S
C422        F426   1.382       .  S
C422        F427   1.382       .  S
C422        F428   1.385       .  S
C429        C430   1.410   1_655  A
C429        C434   1.410       .  A
C429        H436   1.084       .  S
C430        C431   1.426       .  A
C431        C432   1.408       .  A
C431        C438   1.520       .  S
C432        C433   1.398       .  A
C432        H437   1.083       .  S
C433        C434   1.413   1_455  A
C434        C435   1.518       .  S
C435        F439   1.384       .  S
C435        F440   1.382       .  S
C435        F441   1.384   1_655  S
C438        F442   1.383       .  S
C438        F443   1.383       .  S
C438        F444   1.385       .  S
C445        C446   1.404       .  A
C445        C450   1.409       .  A
C445        H452   1.083       .  S
C446        C447   1.421   1_565  A
C447        C448   1.409       .  A
C447        C454   1.520       .  S
C448        C449   1.403   1_545  A
C448        H453   1.082       .  S
C449        C450   1.420       .  A
C450        C451   1.520       .  S
C451        F455   1.384       .  S
C451        F456   1.382       .  S
C451        F457   1.383       .  S
C454        F458   1.382       .  S
C454        F459   1.381       .  S
C454        F460   1.385       .  S
C461        C462   1.406   1_545  A
C461        C466   1.409       .  A
C461        H468   1.083       .  S
C462        C463   1.418       .  A
C463        C464   1.406       .  A
C463        C470   1.520       .  S
C464        C465   1.404       .  A
C464        H469   1.083       .  S
C465        C466   1.419   1_565  A
C466        C467   1.520       .  S
C467        F471   1.385       .  S
C467        F472   1.382       .  S
C467        F473   1.383       .  S
C470        F474   1.382       .  S
C470        F475   1.385       .  S
C470        F476   1.382       .  S
C477        C478   1.405   1_545  A
C477        C482   1.407       .  A
C477        H484   1.083       .  S
C478        C479   1.421       .  A
C479        C480   1.409       .  A
C479        C486   1.521       .  S
C480        C481   1.406       .  A
C480        H485   1.083       .  S
C481        C482   1.421   1_565  A
C482        C483   1.521       .  S
C483        F487   1.385       .  S
C483        F488   1.383       .  S
C483        F489   1.383       .  S
C486        F490   1.382       .  S
C486        F491   1.384       .  S
C486        F492   1.385       .  S
C493        C494   1.404       .  A
C493        C498   1.408       .  A
C493        H500   1.079       .  S
C494        C495   1.417   1_545  A
C495        C496   1.407       .  A
C495        C502   1.520       .  S
C496        C497   1.406   1_565  A
C496        H501   1.082       .  S
C497        C498   1.418       .  A
C498        C499   1.519       .  S
C499        F503   1.385       .  S
C499        F504   1.383       .  S
C499        F505   1.382       .  S
C502        F506   1.384       .  S
C502        F507   1.382       .  S
C502        F508   1.385       .  S
C509        C510   1.409       .  A
C509        C514   1.410       .  A
C509        H516   1.083       .  S
C510        C511   1.423   1_565  A
C511        C512   1.406       .  A
C511        C518   1.519       .  S
C512        C513   1.400   1_545  A
C512        H517   1.083       .  S
C513        C514   1.415       .  A
C514        C515   1.518       .  S
C515        F519   1.385       .  S
C515        F520   1.382       .  S
C515        F521   1.384       .  S
C518        F522   1.382       .  S
C518        F523   1.381       .  S
C518        F524   1.385       .  S
C525        C526   1.405       .  A
C525        C530   1.410       .  A
C525        H532   1.083       .  S
C526        C527   1.419   1_545  A
C527        C528   1.406       .  A
C527        C534   1.520       .  S
C528        C529   1.403   1_565  A
C528        H533   1.083       .  S
C529        C530   1.421       .  A
C530        C531   1.521       .  S
C531        F535   1.385       .  S
C531        F536   1.382       .  S
C531        F537   1.381       .  S
C534        F538   1.383       .  S
C534        F539   1.382       .  S
C534        F540   1.385       .  S
C541        C542   1.402   1_565  A
C541        C546   1.408       .  A
C541        H548   1.083       .  S
C542        C543   1.417       .  A
C543        C544   1.409       .  A
C543        C550   1.520       .  S
C544        C545   1.408   1_545  A
C544        H549   1.083       .  S
C545        C546   1.421       .  A
C546        C547   1.519       .  S
C547        F551   1.385       .  S
C547        F552   1.382       .  S
C547        F553   1.384       .  S
C550        F554   1.382       .  S
C550        F555   1.383       .  S
C550        F556   1.385       .  S
C557        C558   1.403   1_565  A
C557        C562   1.408       .  A
C557        H564   1.083       .  S
C558        C559   1.422       .  A
C559        C560   1.409       .  A
C559        C566   1.521       .  S
C560        C561   1.403       .  A
C560        H565   1.083       .  S
C561        C562   1.421   1_545  A
C562        C563   1.521       .  S
C563        F567   1.385       .  S
C563        F568   1.382       .  S
C563        F569   1.381       .  S
C566        F570   1.383       .  S
C566        F571   1.382       .  S
C566        F572   1.385       .  S
C573        C574   1.404       .  A
C573        C578   1.407       .  A
C573        H580   1.082       .  S
C574        C575   1.419   1_565  A
C575        C576   1.409       .  A
C575        C582   1.520       .  S
C576        C577   1.405   1_545  A
C576        H581   1.083       .  S
C577        C578   1.419       .  A
C578        C579   1.520       .  S
C579        F583   1.385       .  S
C579        F584   1.382       .  S
C579        F585   1.384       .  S
C582        F586   1.383       .  S
C582        F587   1.382       .  S
C582        F588   1.384       .  S
C589        C590   1.403   1_545  A
C589        C594   1.408       .  A
C589        H596   1.082       .  S
C590        C591   1.418       .  A
C591        C592   1.410       .  A
C591        C598   1.517       .  S
C592        C593   1.404       .  A
C592        H597   1.082       .  S
C593        C594   1.418   1_565  A
C594        C595   1.518       .  S
C595        F599   1.384       .  S
C595        F600   1.382       .  S
C595        F601   1.382       .  S
C598        F602   1.382       .  S
C598        F603   1.382       .  S
C598        F604   1.385       .  S
C605        C606   1.402       .  A
C605        C610   1.413       .  A
C605        H612   1.083       .  S
C606        C607   1.412   1_565  A
C607        C608   1.407       .  A
C607        C614   1.519       .  S
C608        C609   1.411       .  A
C608        H613   1.082       .  S
C609        C610   1.426   1_545  A
C610        C611   1.520       .  S
C611        F615   1.384       .  S
C611        F616   1.383   1_565  S
C611        F617   1.385       .  S
C614        F618   1.384   1_545  S
C614        F619   1.382       .  S
C614        F620   1.385       .  S
C621        C622   1.405   1_545  A
C621        C626   1.407       .  A
C621        H628   1.083       .  S
C622        C623   1.422       .  A
C623        C624   1.411       .  A
C623        C630   1.520       .  S
C624        C625   1.403       .  A
C624        H629   1.083       .  S
C625        C626   1.417   1_565  A
C626        C627   1.520       .  S
C627        F631   1.385       .  S
C627        F632   1.382       .  S
C627        F633   1.383       .  S
C630        F634   1.382       .  S
C630        F635   1.384       .  S
C630        F636   1.385       .  S
C637        C638   1.408       .  A
C637        C642   1.406       .  A
C637        H644   1.083       .  S
C638        C639   1.423   1_554  A
C639        C640   1.408       .  A
C639        C646   1.520       .  S
C640        C641   1.401   1_556  A
C640        H645   1.084       .  S
C641        C642   1.414       .  A
C642        C643   1.519       .  S
C643        F647   1.385       .  S
C643        F648   1.382       .  S
C643        F649   1.383       .  S
C646        F650   1.383       .  S
C646        F651   1.384       .  S
C646        F652   1.385       .  S
C653        C654   1.404       .  A
C653        C658   1.409       .  A
C653        H660   1.079       .  S
C654        C655   1.420   1_554  A
C655        C656   1.408       .  A
C655        C662   1.520       .  S
C656        C657   1.403   1_556  A
C656        H661   1.076       .  S
C657        C658   1.419       .  A
C658        C659   1.518       .  S
C659        F663   1.385       .  S
C659        F664   1.382       .  S
C659        F665   1.382       .  S
C662        F666   1.384       .  S
C662        F667   1.382       .  S
C662        F668   1.385       .  S
C669        C670   1.405   1_554  A
C669        C674   1.407       .  A
C669        H676   1.083       .  S
C670        C671   1.420       .  A
C671        C672   1.406       .  A
C671        C678   1.520       .  S
C672        C673   1.404   1_556  A
C672        H677   1.083       .  S
C673        C674   1.418       .  A
C674        C675   1.520       .  S
C675        F679   1.385       .  S
C675        F680   1.384       .  S
C675        F681   1.382       .  S
C678        F682   1.383       .  S
C678        F683   1.383       .  S
C678        F684   1.385       .  S
C685        C686   1.411   1_554  A
C685        C690   1.409       .  A
C685        H692   1.083       .  S
C686        C687   1.426       .  A
C687        C688   1.406       .  A
C687        C694   1.521       .  S
C688        C689   1.398   1_556  A
C688        H693   1.084       .  S
C689        C690   1.413       .  A
C690        C691   1.518       .  S
C691        F695   1.385       .  S
C691        F696   1.382       .  S
C691        F697   1.382       .  S
C694        F698   1.383       .  S
C694        F699   1.383       .  S
C694        F700   1.385       .  S
C701        C702   1.404   1_556  A
C701        C706   1.410       .  A
C701        H708   1.083       .  S
C702        C703   1.420       .  A
C703        C704   1.411       .  A
C703        C710   1.520       .  S
C704        C705   1.405   1_554  A
C704        H709   1.082       .  S
C705        C706   1.420       .  A
C706        C707   1.519       .  S
C707        F711   1.384       .  S
C707        F712   1.384       .  S
C707        F713   1.382       .  S
C710        F714   1.385       .  S
C710        F715   1.382       .  S
C710        F716   1.382       .  S
C717        C718   1.407   1_556  A
C717        C722   1.408       .  A
C717        H724   1.083       .  S
C718        C719   1.422       .  A
C719        C720   1.406       .  A
C719        C726   1.522       .  S
C720        C721   1.405       .  A
C720        H725   1.082       .  S
C721        C722   1.422   1_554  A
C722        C723   1.522       .  S
C723        F727   1.385       .  S
C723        F728   1.384       .  S
C723        F729   1.383       .  S
C726        F730   1.383       .  S
C726        F731   1.384       .  S
C726        F732   1.384       .  S
C733        C734   1.404   1_556  A
C733        C738   1.408       .  A
C733        H740   1.083       .  S
C734        C735   1.422       .  A
C735        C736   1.411       .  A
C735        C742   1.520       .  S
C736        C737   1.404   1_554  A
C736        H741   1.083       .  S
C737        C738   1.418       .  A
C738        C739   1.515       .  S
C739        F743   1.385       .  S
C739        F744   1.383       .  S
C739        F745   1.379       .  S
C742        F746   1.383       .  S
C742        F747   1.383       .  S
C742        F748   1.384       .  S
C749        C750   1.404       .  A
C749        C754   1.404       .  A
C749        H756   1.088       .  S
C750        C751   1.419   1_554  A
C751        C752   1.406       .  A
C751        C758   1.519       .  S
C752        C753   1.402   1_556  A
C752        H757   1.088       .  S
C753        C754   1.416       .  A
C754        C755   1.520       .  S
C755        F759   1.385       .  S
C755        F760   1.382       .  S
C755        F761   1.383       .  S
C758        F762   1.382       .  S
C758        F763   1.383       .  S
C758        F764   1.385       .  S
C765        C766   1.403   1_556  A
C765        C770   1.405       .  A
C765        H772   1.083       .  S
C766        C767   1.419       .  A
C767        C768   1.409       .  A
C767        C774   1.521       .  S
C768        C769   1.406   1_554  A
C768        H773   1.083       .  S
C769        C770   1.420       .  A
C770        C771   1.521       .  S
C771        F775   1.384       .  S
C771        F776   1.382       .  S
C771        F777   1.383       .  S
C774        F778   1.382       .  S
C774        F779   1.384       .  S
C774        F780   1.385       .  S
C781        C782   1.404   1_556  A
C781        C786   1.407       .  A
C781        H788   1.083       .  S
C782        C783   1.422       .  A
C783        C784   1.407       .  A
C783        C790   1.520       .  S
C784        C785   1.403       .  A
C784        H789   1.083       .  S
C785        C786   1.420   1_554  A
C786        C787   1.521       .  S
C787        F791   1.385       .  S
C787        F792   1.383       .  S
C787        F793   1.384       .  S
C790        F794   1.382       .  S
C790        F795   1.383       .  S
C790        F796   1.385       .  S
C797        C798   1.399       .  A
C797        C802   1.410       .  A
C797        H804   1.084       .  S
C798        C799   1.410   1_556  A
C799        C800   1.406       .  A
C799        C806   1.518       .  S
C800        C801   1.411   1_554  A
C800        H805   1.082       .  S
C801        C802   1.428       .  A
C802        C803   1.521       .  S
C803        F807   1.385       .  S
C803        F808   1.384       .  S
C803        F809   1.383   1_556  S
C806        F810   1.384   1_554  S
C806        F811   1.382       .  S
C806        F812   1.384       .  S
C813        C814   1.405   1_556  A
C813        C818   1.409       .  A
C813        H820   1.083       .  S
C814        C815   1.422       .  A
C815        C816   1.406       .  A
C815        C822   1.521       .  S
C816        C817   1.401   1_554  A
C816        H821   1.082       .  S
C817        C818   1.418       .  A
C818        C819   1.520       .  S
C819        F823   1.385       .  S
C819        F824   1.382       .  S
C819        F825   1.383       .  S
C822        F826   1.383       .  S
C822        F827   1.383       .  S
C822        F828   1.385       .  S
