geometry optimzed in LAMMPS
_audit_creation_date              2020-11-30 
_audit_creation_method            'lammps2cif' 
_symmetry_space_group_name_H-M    'P1' 
_symmetry_Int_Tables_number       1 
_symmetry_cell_setting            triclinic 
loop_ 
_symmetry_equiv_pos_as_xyz 
  x,y,z 
_cell_length_a                    47.60951819 
_cell_length_b                    47.6306328843609 
_cell_length_c                    47.674219209095185 
_cell_angle_alpha                 90.06578956675504 
_cell_angle_beta                  89.89990180776701 
_cell_angle_gamma                 90.08039976891448 
loop_ 
_atom_site_label 
_atom_site_type_symbol 
_atom_site_fract_x 
_atom_site_fract_y 
_atom_site_fract_z 
_atom_site_charge 
C1          C  0.10234877  0.76121110  0.35831826     0.87500
C2          C  0.12498624  0.78310297  0.35091535    -0.52700
C3          C  0.15178349  0.77275585  0.35160549     0.10400
C4          C  0.15335600  0.74134999  0.35975731     0.21400
C5          C  0.10719184  0.73693250  0.33791325    -0.53400
C6          C  0.13380419  0.72650505  0.33839094     0.10500
C7          C  0.11083637  0.74990281  0.38715871    -0.53000
C8          C  0.13753472  0.73959460  0.38818424     0.11100
H9          H  0.12028117  0.80488483  0.34611710     0.15600
H10         H  0.17504467  0.73280203  0.36038731     0.01400
H11         H  0.09098595  0.72880492  0.32405417     0.15900
H12         H  0.09691254  0.75006339  0.40525064     0.15700
C13         C  0.76721866  0.17279093  0.67178559     0.87500
C14         C  0.77618993  0.14263903  0.67831467    -0.52700
C15         C  0.75533435  0.12330634  0.67460140     0.10400
C16         C  0.72734872  0.13595746  0.66426974     0.21400
C17         C  0.75604435  0.17186549  0.64165490    -0.53400
C18         C  0.73517438  0.15272146  0.63752943     0.10500
C19         C  0.74125392  0.17797639  0.69028264    -0.53000
C20         C  0.72037589  0.15857944  0.68645515     0.11100
H21         H  0.79711349  0.13708375  0.68546535     0.15600
H22         H  0.71038832  0.12022175  0.66112543     0.01400
H23         H  0.76374609  0.18550022  0.62506227     0.15900
H24         H  0.73979982  0.19495625  0.70544851     0.15700
C25         C  0.33418246  0.17481564  0.78624135     0.87500
C26         C  0.36359078  0.17305084  0.77316753    -0.52700
C27         C  0.36672677  0.15150689  0.75456801     0.10400
C28         C  0.33999099  0.13364170  0.75048880     0.21400
C29         C  0.31390350  0.17651904  0.76113686    -0.53400
C30         C  0.31693017  0.15486814  0.74240381     0.10500
C31         C  0.32899937  0.14562799  0.79899379    -0.53000
C32         C  0.33197787  0.12408024  0.78027950     0.11100
H33         H  0.38051446  0.18748967  0.77829965     0.15600
H34         H  0.34255080  0.11609877  0.73530854     0.01400
H35         H  0.29847485  0.19308959  0.75857168     0.15900
H36         H  0.32374764  0.14229214  0.82092703     0.15700
C37         C  0.13296917  0.61832350  0.74073958     0.87500
C38         C  0.15368491  0.62544581  0.76417775    -0.52700
C39         C  0.15225875  0.65259155  0.77316463     0.10400
C40         C  0.12999660  0.67039374  0.75764145     0.21400
C41         C  0.10398643  0.62646634  0.75237053    -0.53400
C42         C  0.10223676  0.65371914  0.76126426     0.10500
C43         C  0.13905447  0.63977919  0.71747678    -0.53000
C44         C  0.13759302  0.66707109  0.72617306     0.11100
H45         H  0.16821194  0.61025638  0.77302627     0.15600
H46         H  0.12876295  0.69252558  0.76491393     0.01400
H47         H  0.08651566  0.61183404  0.75382827     0.15900
H48         H  0.14372749  0.63389839  0.69593457     0.15700
C49         C  0.64101038  0.78402611  0.18186204     0.87500
C50         C  0.61185462  0.77044888  0.18341688    -0.52700
C51         C  0.60762391  0.74966930  0.16416701     0.10400
C52         C  0.63332922  0.74438430  0.14479130     0.21400
C53         C  0.66182973  0.75964408  0.18458143    -0.53400
C54         C  0.65793972  0.73889432  0.16518868     0.10500
C55         C  0.64408414  0.79407283  0.15138647    -0.53000
C56         C  0.64028365  0.77337401  0.13184455     0.11100
H57         H  0.59603579  0.77649497  0.19871151     0.15600
H58         H  0.63014893  0.72745369  0.12905578     0.01400
H59         H  0.67850638  0.75909866  0.20009516     0.15900
H60         H  0.64936304  0.81554625  0.14578632     0.15700
C61         C  0.73769317  0.39022974  0.15748577     0.87500
C62         C  0.76187106  0.38316203  0.17718516    -0.52700
C63         C  0.77254412  0.35691410  0.17344510     0.10400
C64         C  0.75790042  0.33997685  0.14969414     0.21400
C65         C  0.74917411  0.38555737  0.12785882    -0.53400
C66         C  0.75963994  0.35926697  0.12352749     0.10500
C67         C  0.71597925  0.36682707  0.16184469    -0.53000
C68         C  0.72636459  0.34045537  0.15768281     0.11100
H69         H  0.76948827  0.39748116  0.19324292     0.15600
H70         H  0.76651262  0.31856453  0.14637230     0.01400
H71         H  0.74878582  0.40155422  0.11160785     0.15900
H72         H  0.69413524  0.37080527  0.16715910     0.15700
C73         C  0.10232239  0.76686233  0.65101566     0.87500
C74         C  0.10937611  0.75468462  0.62202720    -0.52700
C75         C  0.13578882  0.74360511  0.62006102     0.10400
C76         C  0.15274295  0.74564922  0.64790885     0.21400
C77         C  0.10732663  0.74296966  0.67163693    -0.53400
C78         C  0.13352020  0.73174521  0.67037553     0.10500
C79         C  0.12571912  0.78830502  0.65703795    -0.53000
C80         C  0.15223377  0.77738768  0.65549674     0.11100
H81         H  0.09472024  0.75477691  0.60458595     0.15600
H82         H  0.17416630  0.73652625  0.64665150     0.01400
H83         H  0.09140837  0.73559829  0.68629127     0.15900
H84         H  0.12166420  0.81023575  0.66183807     0.15700
C85         C  0.72672686  0.15345784  0.40003683     0.87500
C86         C  0.73671680  0.12318504  0.39632685    -0.52700
C87         C  0.74791397  0.11771500  0.37061694     0.10400
C88         C  0.74841889  0.14329624  0.35069935     0.21400
C89         C  0.75227014  0.17165927  0.39318230    -0.53400
C90         C  0.76365757  0.16652040  0.36742450     0.10500
C91         C  0.70612247  0.15843496  0.37556896    -0.53000
C92         C  0.71758033  0.15314522  0.34961707     0.11100
H93         H  0.73518897  0.10739974  0.41272533     0.15600
H94         H  0.75781387  0.13892595  0.32979958     0.01400
H95         H  0.76058419  0.18743799  0.40743901     0.15900
H96         H  0.68458722  0.16538229  0.37849292     0.15700
C97         C  0.60130483  0.14599114  0.74948675     0.87500
C98         C  0.61124879  0.11844241  0.76260386    -0.52700
C99         C  0.63813693  0.11943604  0.77236574     0.10400
C100        C  0.65258517  0.14825100  0.76857321     0.21400
C101        C  0.60555752  0.16828210  0.77217155    -0.53400
C102        C  0.63228414  0.16968546  0.78227968     0.10500
C103        C  0.62332155  0.15273232  0.72676977    -0.53000
C104        C  0.65024600  0.15376720  0.73675139     0.11100
H105        H  0.59833742  0.09963471  0.76364431     0.15600
H106        H  0.67441086  0.14911065  0.77674627     0.01400
H107        H  0.58881825  0.18192756  0.77957777     0.15900
H108        H  0.61819209  0.15552570  0.70475198     0.15700
C109        C  0.16104049  0.35006231  0.77967936     0.87500
C110        C  0.13054846  0.34510762  0.78879024    -0.52700
C111        C  0.11163520  0.34721968  0.76738633     0.10400
C112        C  0.12498325  0.35434407  0.73875475     0.21400
C113        C  0.16614214  0.32898223  0.75587863    -0.53400
C114        C  0.14714384  0.33095923  0.73450055     0.10500
C115        C  0.16100552  0.37895617  0.76562591    -0.53000
C116        C  0.14216104  0.38147406  0.74432565     0.11100
H117        H  0.12444796  0.34033998  0.81023703     0.15600
H118        H  0.10954630  0.35611895  0.72139634     0.01400
H119        H  0.18249550  0.31310853  0.75647279     0.15900
H120        H  0.17452685  0.39613510  0.77223369     0.15700
C121        C  0.32389460  0.72524186  0.16449883     0.87500
C122        C  0.31986044  0.75086581  0.18358642    -0.52700
C123        C  0.33930765  0.77153154  0.17931514     0.10400
C124        C  0.36111004  0.76460920  0.15623895     0.21400
C125        C  0.32387012  0.73701095  0.13450053    -0.53400
C126        C  0.34332127  0.75760220  0.13006068     0.10500
C127        C  0.35416993  0.71561317  0.16957648    -0.53000
C128        C  0.37373802  0.73616532  0.16525885     0.11100
H129        H  0.30348619  0.75229433  0.19942703     0.15600
H130        H  0.37700463  0.78136427  0.15278813     0.01400
H131        H  0.30956706  0.72981717  0.11826668     0.15900
H132        H  0.35967599  0.69435287  0.17568335     0.15700
C133        C  0.71593664  0.67465207  0.15893934     0.87500
C134        C  0.74075522  0.67773717  0.17938802    -0.52700
C135        C  0.76086764  0.65748352  0.17613607     0.10400
C136        C  0.75455511  0.63640263  0.15240077     0.21400
C137        C  0.72910151  0.67447904  0.12962699    -0.53400
C138        C  0.74918209  0.65446113  0.12604173     0.10500
C139        C  0.70520169  0.64458848  0.16349519    -0.53000
C140        C  0.72554579  0.62462243  0.16023590     0.11100
H141        H  0.74170840  0.69367143  0.19568133     0.15600
H142        H  0.77093822  0.62002948  0.14960357     0.01400
H143        H  0.72291742  0.68882226  0.11304631     0.15900
H144        H  0.68365344  0.63957761  0.16913394     0.15700
C145        C  0.32138766  0.73019032  0.86425170     0.87500
C146        C  0.35167465  0.71952128  0.86085484    -0.52700
C147        C  0.37162195  0.73983231  0.86510861     0.10400
C148        C  0.35925558  0.76899477  0.87207427     0.21400
C149        C  0.32041853  0.74325946  0.89360179    -0.53400
C150        C  0.34035656  0.76336105  0.89790648     0.10500
C151        C  0.31883168  0.75480241  0.84394596    -0.53000
C152        C  0.33851572  0.77514543  0.84776055     0.11100
H153        H  0.35686648  0.69779152  0.85623455     0.15600
H154        H  0.37536499  0.78555280  0.87544030     0.01400
H155        H  0.30567650  0.73673876  0.90977165     0.15900
H156        H  0.30295259  0.75588890  0.82760770     0.15700
C157        C  0.71289654  0.67544537  0.86259870     0.87500
C158        C  0.70331396  0.64484819  0.85898764    -0.52700
C159        C  0.72420692  0.62558595  0.86307017     0.10400
C160        C  0.75297359  0.63901238  0.87034074     0.21400
C161        C  0.72584514  0.67677191  0.89193558    -0.53400
C162        C  0.74675538  0.65777964  0.89616710     0.10500
C163        C  0.73766477  0.67903757  0.84228152    -0.53000
C164        C  0.75876689  0.66008614  0.84619426     0.11100
H165        H  0.68182794  0.63893370  0.85405928     0.15600
H166        H  0.77005835  0.62352111  0.87370546     0.01400
H167        H  0.71909499  0.69153676  0.90798679     0.15900
H168        H  0.73831344  0.69499972  0.82602704     0.15700
C169        C  0.84341870  0.38794100  0.75228590     0.87500
C170        C  0.82304277  0.38335210  0.77644668    -0.52700
C171        C  0.82407109  0.35712365  0.78757325     0.10400
C172        C  0.84603148  0.33756607  0.77321521     0.21400
C173        C  0.87238412  0.38055491  0.76371835    -0.53400
C174        C  0.87402839  0.35411349  0.77435969     0.10500
C175        C  0.83677378  0.36479480  0.73088993    -0.53000
C176        C  0.83842098  0.33830379  0.74170558     0.11100
H177        H  0.80858583  0.39940446  0.78386475     0.15600
H178        H  0.84724841  0.31606999  0.78213825     0.01400
H179        H  0.89033665  0.39465516  0.76258792     0.15900
H180        H  0.83277477  0.36891107  0.70883443     0.15700
C181        C  0.60242299  0.87013867  0.74984458     0.87500
C182        C  0.60727373  0.84877580  0.77326581    -0.52700
C183        C  0.63442176  0.84755628  0.78220073     0.10400
C184        C  0.65437172  0.86802485  0.76694314     0.21400
C185        C  0.61328059  0.89810268  0.76148209    -0.53400
C186        C  0.64052196  0.89703825  0.77028438     0.10500
C187        C  0.62341967  0.86211518  0.72661715    -0.53000
C188        C  0.65064772  0.86111505  0.73561883     0.11100
H189        H  0.59074182  0.83555467  0.78186524     0.15600
H190        H  0.67648864  0.86716195  0.77430854     0.01400
H191        H  0.60059384  0.91702845  0.76268082     0.15900
H192        H  0.61739047  0.85819316  0.70499472     0.15700
C193        C  0.76112236  0.82953400  0.36602552     0.87500
C194        C  0.74924827  0.83023272  0.39592683    -0.52700
C195        C  0.72930338  0.85037736  0.39997424     0.10400
C196        C  0.72252122  0.86762975  0.37336235     0.21400
C197        C  0.73563377  0.82584039  0.34676694    -0.53400
C198        C  0.71551877  0.84591660  0.35023562     0.10500
C199        C  0.77144796  0.85965986  0.36052092    -0.53000
C200        C  0.75111393  0.87958300  0.36437431     0.11100
H201        H  0.75669911  0.81670923  0.41266687     0.15600
H202        H  0.70613797  0.88394270  0.37648207     0.01400
H203        H  0.73464399  0.81007254  0.33030605     0.15900
H204        H  0.79284231  0.86476649  0.35441528     0.15700
C205        C  0.83688065  0.73370948  0.62690286     0.87500
C206        C  0.83303269  0.71308875  0.65147446    -0.52700
C207        C  0.83657322  0.72514329  0.67735191     0.10400
C208        C  0.84362096  0.75676709  0.67618356     0.21400
C209        C  0.81629125  0.75764366  0.63289956    -0.53400
C210        C  0.81968896  0.76976739  0.65861287     0.10500
C211        C  0.86611463  0.74648684  0.63127186    -0.53000
C212        C  0.86978020  0.75844506  0.65702092     0.11100
H213        H  0.82834427  0.69093089  0.64864916     0.15600
H214        H  0.84653383  0.76668383  0.69708642     0.01400
H215        H  0.80044110  0.76450411  0.61803711     0.15900
H216        H  0.88249851  0.74613472  0.61536459     0.15700
C217        C  0.64143323  0.78698002  0.84186278     0.87500
C218        C  0.66041765  0.76139442  0.83698183    -0.52700
C219        C  0.65632282  0.74040241  0.85609677     0.10400
C220        C  0.63349675  0.74687607  0.87817176     0.21400
C221        C  0.61143592  0.77534174  0.84192324    -0.53400
C222        C  0.60720188  0.75441999  0.86086102     0.10500
C223        C  0.64700994  0.79594027  0.87227470    -0.53000
C224        C  0.64293263  0.77490434  0.89132922     0.11100
H225        H  0.67613345  0.76029708  0.82046599     0.15600
H226        H  0.63010366  0.72978102  0.89366223     0.01400
H227        H  0.59499442  0.78288438  0.82804704     0.15900
H228        H  0.65352026  0.81699479  0.87820982     0.15700
C229        C  0.71369987  0.33373290  0.85934721     0.87500
C230        C  0.73846094  0.33012736  0.83908036    -0.52700
C231        C  0.75974891  0.34884507  0.84339948     0.10400
C232        C  0.75405263  0.36987231  0.86760175     0.21400
C233        C  0.72662784  0.33202549  0.88873658    -0.53400
C234        C  0.74779013  0.35084406  0.89315766     0.10500
C235        C  0.70442257  0.36438192  0.85608556    -0.53000
C236        C  0.72536489  0.38351347  0.86040817     0.11100
H237        H  0.73915126  0.31412306  0.82283857     0.15600
H238        H  0.77129685  0.38520739  0.87113336     0.01400
H239        H  0.71993682  0.31695949  0.90450170     0.15900
H240        H  0.68298823  0.37044364  0.85118413     0.15700
C241        C  0.84038076  0.61895787  0.75269753     0.87500
C242        C  0.83405727  0.64186243  0.73110547    -0.52700
C243        C  0.83573038  0.66848612  0.74153177     0.10400
C244        C  0.84312576  0.66964063  0.77318460     0.21400
C245        C  0.86935188  0.62644368  0.76438463    -0.53400
C246        C  0.87105504  0.65303411  0.77488760     0.10500
C247        C  0.81983468  0.62393431  0.77672706    -0.53000
C248        C  0.82099320  0.65029713  0.78771376     0.11100
H249        H  0.82998053  0.63744119  0.70910364     0.15600
H250        H  0.84437311  0.69124389  0.78189504     0.01400
H251        H  0.88718053  0.61221490  0.76373858     0.15900
H252        H  0.80539424  0.60794556  0.78434786     0.15700
C253        C  0.33790299  0.83787788  0.78803909     0.87500
C254        C  0.31627312  0.83238930  0.76461770    -0.52700
C255        C  0.31685260  0.85191688  0.74350869     0.10400
C256        C  0.33938427  0.87509800  0.74791417     0.21400
C257        C  0.36626859  0.83958765  0.77310516    -0.53400
C258        C  0.36728018  0.85906299  0.75229576     0.10500
C259        C  0.33199145  0.86786930  0.79806763    -0.53000
C260        C  0.33282827  0.88743638  0.77717010     0.11100
H261        H  0.30175423  0.81477519  0.76481895     0.15600
H262        H  0.34025407  0.89103520  0.73093379     0.01400
H263        H  0.38430272  0.82688958  0.77894284     0.15900
H264        H  0.32830212  0.87328181  0.81991304     0.15700
C265        C  0.76435289  0.83467510  0.66799262     0.87500
C266        C  0.73849071  0.83067517  0.68691392    -0.52700
C267        C  0.71886547  0.85138998  0.68395352     0.10400
C268        C  0.72675571  0.87400554  0.66219501     0.21400
C269        C  0.75265324  0.83700006  0.63816650    -0.53400
C270        C  0.73307041  0.85752592  0.63497844     0.10500
C271        C  0.77535227  0.86420082  0.67504914    -0.53000
C272        C  0.75557070  0.88480874  0.67216735     0.11100
H273        H  0.73624772  0.81351352  0.70175268     0.15600
H274        H  0.71072765  0.89076285  0.65975000     0.01400
H275        H  0.75923454  0.82344604  0.62101346     0.15900
H276        H  0.79672883  0.86839885  0.68182171     0.15700
O277        O  0.84937749  0.62888654  0.53360413    -0.71900
O278        O  0.84863297  0.68977028  0.47672422    -0.72900
O279        O  0.85143108  0.68731142  0.53720273    -0.61500
O280        O  0.84607683  0.63095275  0.47453159    -0.69900
O281        O  0.79958511  0.63154097  0.47695216    -0.69500
O282        O  0.80486630  0.68887957  0.53945900    -0.60700
O283        O  0.80199078  0.69097347  0.47821777    -0.73200
O284        O  0.80288387  0.62992582  0.53658093    -0.72000
Cu285      Cu  0.85041510  0.65936518  0.50539255     1.04600
Cu286      Cu  0.80063450  0.66061207  0.50786546     1.04300
C287        C  0.82653401  0.62001107  0.54443774     0.94300
C288        C  0.82529109  0.69873155  0.46729654     0.93400
C289        C  0.82894514  0.69560661  0.54927087     0.85600
C290        C  0.82220463  0.62207040  0.46598463     0.91800
O291        O  0.81063640  0.53046359  0.64558321    -0.71900
O292        O  0.81564169  0.47273236  0.70570425    -0.72900
O293        O  0.81373321  0.53283355  0.70459901    -0.61500
O294        O  0.81302290  0.47138328  0.64690736    -0.69900
O295        O  0.85955340  0.47303530  0.64481896    -0.69500
O296        O  0.86035214  0.53421356  0.70212294    -0.60700
O297        O  0.86230099  0.47425556  0.70344226    -0.73200
O298        O  0.85715999  0.53208335  0.64318086    -0.72000
Cu299      Cu  0.81161650  0.50184202  0.67595939     1.04600
Cu300      Cu  0.86147476  0.50351717  0.67347261     1.04300
C301        C  0.83308460  0.54010417  0.63453522     0.94300
C302        C  0.83966719  0.46351268  0.71295722     0.93400
C303        C  0.83720858  0.54371120  0.71167758     0.85600
C304        C  0.83624526  0.46254144  0.63672060     0.91800
O305        O  0.68559389  0.17703654  0.55338401    -0.71900
O306        O  0.62724901  0.18277981  0.49218170    -0.72900
O307        O  0.62622384  0.17802627  0.55182774    -0.61500
O308        O  0.68600333  0.18177985  0.49189434    -0.69900
O309        O  0.68507237  0.13524533  0.48883156    -0.69500
O310        O  0.62590014  0.13158841  0.54856193    -0.60700
O311        O  0.62648964  0.13630944  0.48939312    -0.73200
O312        O  0.68500061  0.13055887  0.54989855    -0.72000
Cu313      Cu  0.65655461  0.18155544  0.52257014     1.04600
Cu314      Cu  0.65583929  0.13186546  0.51912683     1.04300
C315        C  0.69322161  0.15289342  0.56228805     0.94300
C316        C  0.61791635  0.16026410  0.48091765     0.93400
C317        C  0.61634189  0.15419750  0.55933824     0.85600
C318        C  0.69291522  0.15906485  0.47935900     0.91800
O319        O  0.45502203  0.12503391  0.64324396    -0.71900
O320        O  0.51240896  0.12171885  0.70475542    -0.72900
O321        O  0.45127552  0.12187808  0.70238939    -0.61500
O322        O  0.51447139  0.12480354  0.64606771    -0.69900
O323        O  0.51416721  0.17130547  0.64839178    -0.69500
O324        O  0.45156708  0.16845282  0.70472777    -0.60700
O325        O  0.51238896  0.16832776  0.70692149    -0.73200
O326        O  0.45467730  0.17153018  0.64571887    -0.72000
Cu327      Cu  0.48318701  0.12169796  0.67423735     1.04600
Cu328      Cu  0.48311295  0.17147903  0.67673325     1.04300
C329        C  0.44606724  0.14874177  0.63447663     0.94300
C330        C  0.52284227  0.14468313  0.71390377     0.93400
C331        C  0.44075014  0.14484945  0.71143721     0.85600
C332        C  0.52443040  0.14857255  0.63852131     0.91800
O333        O  0.17471464  0.47096310  0.64057763    -0.71900
O334        O  0.16483598  0.52979492  0.70074699    -0.72900
O335        O  0.16540032  0.46822390  0.69896215    -0.61500
O336        O  0.17413202  0.53071293  0.64214494    -0.69900
O337        O  0.12794399  0.53044218  0.63635311    -0.69500
O338        O  0.11930511  0.46777139  0.69199070    -0.60700
O339        O  0.11863666  0.52884733  0.69439262    -0.73200
O340        O  0.12860674  0.47146158  0.63400934    -0.72000
Cu341      Cu  0.17139990  0.49992701  0.67113601     1.04600
Cu342      Cu  0.12206476  0.49960518  0.66417203     1.04300
C343        C  0.15294007  0.46217508  0.62761174     0.94300
C344        C  0.14037522  0.53976606  0.70562714     0.93400
C345        C  0.14126615  0.45703009  0.70292798     0.85600
C346        C  0.15214522  0.54030019  0.63014310     0.91800
O347        O  0.13614670  0.63325574  0.47514543    -0.71900
O348        O  0.13065365  0.69348086  0.53426027    -0.72900
O349        O  0.13233652  0.69219288  0.47317662    -0.61500
O350        O  0.13435121  0.63472961  0.53424745    -0.69900
O351        O  0.18083150  0.63667612  0.53586601    -0.69500
O352        O  0.17886609  0.69501547  0.47368149    -0.60700
O353        O  0.17713694  0.69622103  0.53586873    -0.73200
O354        O  0.18262501  0.63529204  0.47584977    -0.72000
Cu355      Cu  0.13188375  0.66355732  0.50412700     1.04600
Cu356      Cu  0.18156922  0.66619567  0.50532474     1.04300
C357        C  0.15993942  0.62433936  0.46643719     0.94300
C358        C  0.15299344  0.70293635  0.54572910     0.93400
C359        C  0.15521532  0.70137577  0.46261803     0.85600
C360        C  0.15757818  0.62642774  0.54467952     0.91800
O361        O  0.51531205  0.88680977  0.64587363    -0.71900
O362        O  0.45216618  0.88903355  0.70152449    -0.72900
O363        O  0.51312342  0.89128298  0.70446891    -0.61500
O364        O  0.45615436  0.88417945  0.64283530    -0.69900
O365        O  0.45771410  0.83778990  0.64657383    -0.69500
O366        O  0.51478919  0.84477307  0.70769318    -0.60700
O367        O  0.45389578  0.84256856  0.70516622    -0.73200
O368        O  0.51694004  0.84037403  0.64890739    -0.72000
Cu369      Cu  0.48408628  0.88945466  0.67378478     1.04600
Cu370      Cu  0.48585633  0.83977042  0.67746447     1.04300
C371        C  0.52600304  0.86337655  0.63843485     0.94300
C372        C  0.44210035  0.86599575  0.71081477     0.93400
C373        C  0.52421911  0.86897864  0.71432229     0.85600
C374        C  0.44819339  0.85984074  0.63476202     0.91800
O375        O  0.62628036  0.88517895  0.48750440    -0.71900
O376        O  0.68448177  0.88614272  0.54853368    -0.72900
O377        O  0.68520020  0.88465030  0.48708229    -0.61500
O378        O  0.62527025  0.88596917  0.54705585    -0.69900
O379        O  0.62490165  0.83941403  0.54738520    -0.69500
O380        O  0.68508711  0.83804270  0.48868523    -0.60700
O381        O  0.68389690  0.83953265  0.54971161    -0.73200
O382        O  0.62639629  0.83862323  0.48808457    -0.72000
Cu383      Cu  0.65555798  0.88713958  0.51758278     1.04600
Cu384      Cu  0.65529580  0.83732330  0.51855627     1.04300
C385        C  0.61735489  0.86174681  0.47796206     0.94300
C386        C  0.69199507  0.86304303  0.55982890     0.93400
C387        C  0.69290242  0.86091689  0.47713260     0.85600
C388        C  0.61537935  0.86279228  0.55637927     0.91800
O389        O  0.68623068  0.53545606  0.14691343    -0.71900
O390        O  0.62802701  0.47548490  0.15070814    -0.72900
O391        O  0.62772884  0.53438280  0.15196374    -0.61500
O392        O  0.68673286  0.47555036  0.14573840    -0.69900
O393        O  0.69039204  0.47445222  0.19219953    -0.69500
O394        O  0.63058728  0.53409903  0.19838296    -0.60700
O395        O  0.63095843  0.47428976  0.19710533    -0.73200
O396        O  0.68979991  0.53528041  0.19339908    -0.76800
Cu397      Cu  0.65722840  0.50521863  0.14731419     1.04600
Cu398      Cu  0.66078590  0.50445740  0.19699452     1.04300
C399        C  0.69604517  0.54579538  0.16952441     0.94300
C400        C  0.61994146  0.46555767  0.17423765     0.93400
C401        C  0.61962914  0.54354314  0.17581884     0.85600
C402        C  0.69703988  0.46498195  0.16798775     0.91800
O403        O  0.52160740  0.63465003  0.15284377    -0.71900
O404        O  0.46236442  0.69411706  0.14843279    -0.72900
O405        O  0.52313727  0.69325090  0.14654984    -0.61500
O406        O  0.46208298  0.63527037  0.15427811    -0.69900
O407        O  0.46315455  0.63857204  0.20061795    -0.69500
O408        O  0.52458881  0.69780677  0.19286073    -0.60700
O409        O  0.46312219  0.69817476  0.19483435    -0.73200
O410        O  0.52332436  0.63871180  0.19913842    -0.72000
Cu411      Cu  0.49225221  0.66431399  0.14900511     1.04600
Cu412      Cu  0.49357906  0.66868526  0.19853614     1.04300
C413        C  0.53199566  0.62735411  0.17643258     0.94300
C414        C  0.45242505  0.70445834  0.17107269     0.93400
C415        C  0.53441343  0.70363645  0.16850807     0.85600
C416        C  0.45295232  0.62756533  0.17830613     0.91800
O417        O  0.46208807  0.70170572  0.84129220    -0.71900
O418        O  0.52303852  0.64309084  0.83878425    -0.72900
O419        O  0.46345537  0.64279965  0.84060652    -0.61500
O420        O  0.52306391  0.70249559  0.84016544    -0.69900
O421        O  0.52363471  0.70176449  0.88675957    -0.69500
O422        O  0.46465050  0.64182636  0.88710297    -0.60700
O423        O  0.52426638  0.64235595  0.88524326    -0.73200
O424        O  0.46261059  0.70079514  0.88785278    -0.72000
Cu425      Cu  0.49293542  0.67274213  0.83860322     1.04600
Cu426      Cu  0.49390057  0.67185741  0.88835900     1.04300
C427        C  0.45159847  0.70908548  0.86484615     0.94300
C428        C  0.53307673  0.63317230  0.86155618     0.93400
C429        C  0.45445276  0.63308540  0.86394159     0.85600
C430        C  0.53354343  0.71054549  0.86348915     0.91800
O431        O  0.68432387  0.47311849  0.88147923    -0.71900
O432        O  0.62559055  0.53410731  0.88114209    -0.72900
O433        O  0.62470508  0.47438241  0.87970994    -0.61500
O434        O  0.68481522  0.53443924  0.88262223    -0.69900
O435        O  0.68597879  0.53535195  0.83610065    -0.69500
O436        O  0.62545984  0.47536162  0.83326084    -0.60700
O437        O  0.62643279  0.53534174  0.83469240    -0.73200
O438        O  0.68539507  0.47367735  0.83496154    -0.72000
Cu439      Cu  0.65502605  0.50392485  0.88278929     1.04600
Cu440      Cu  0.65610185  0.50490818  0.83311702     1.04300
C441        C  0.69308223  0.46284369  0.85829112     0.94300
C442        C  0.61673754  0.54443853  0.85805808     0.93400
C443        C  0.61522214  0.46569484  0.85613546     0.85600
C444        C  0.69349925  0.54553319  0.85977943     0.91800
C445        C  0.61519499  0.15811750  0.26854701     0.87500
C446        C  0.62254243  0.17985172  0.24619626    -0.52700
C447        C  0.64940695  0.17798836  0.23636221     0.10400
C448        C  0.66687077  0.15431974  0.25056115     0.21400
C449        C  0.62208278  0.12959921  0.25516389    -0.53400
C450        C  0.64917642  0.12747720  0.24582334     0.10500
C451        C  0.63710700  0.16194517  0.29163282    -0.53000
C452        C  0.66416820  0.15967300  0.28262851     0.11100
H453        H  0.60746728  0.19496994  0.23818486     0.15600
H454        H  0.68884404  0.15260593  0.24288849     0.01400
H455        H  0.60696240  0.11257365  0.25339299     0.15900
H456        H  0.63161468  0.16480248  0.31359822     0.15700
C457        C  0.65423079  0.89987960  0.24796901     0.87500
C458        C  0.65700124  0.87571598  0.22684801    -0.52700
C459        C  0.64981862  0.85012955  0.23755127     0.10400
C460        C  0.64083957  0.85105619  0.26874311     0.21400
C461        C  0.62379289  0.89822049  0.25855064    -0.53400
C462        C  0.61672983  0.87263428  0.26934827     0.10500
C463        C  0.67230292  0.89139858  0.27304949    -0.53000
C464        C  0.66527643  0.86596809  0.28417790     0.11100
H465        H  0.66305105  0.87873909  0.20506348     0.15600
H466        H  0.63507134  0.83028072  0.27764693     0.01400
H467        H  0.60918812  0.91571124  0.25765364     0.15900
H468        H  0.68886075  0.90458595  0.28161548     0.15700
O469        O  0.68845993  0.03844298  0.87751865    -0.71900
O470        O  0.68702956  0.97725027  0.81873093    -0.72900
O471        O  0.68516336  0.03848000  0.81848645    -0.61500
O472        O  0.69059130  0.97815760  0.87838095    -0.69900
O473        O  0.64408910  0.97763362  0.88063135    -0.69500
O474        O  0.63862055  0.03652944  0.82143183    -0.60700
O475        O  0.64046110  0.97660052  0.82193607    -0.73200
O476        O  0.64195067  0.03665313  0.87967462    -0.72000
Cu477      Cu  0.68957174  0.00807847  0.84802756     1.04600
Cu478      Cu  0.63979973  0.00672338  0.85087240     1.04300
C479        C  0.66517597  0.04745769  0.88747925     0.94300
C480        C  0.66324411  0.96675877  0.81195665     0.93400
C481        C  0.66091473  0.04788784  0.81184637     0.85600
C482        C  0.66784973  0.96856720  0.88909535     0.91800
O483        O  0.67595871  0.80845190  0.04268821    -0.71900
O484        O  0.68600510  0.86727943  0.98149559    -0.72900
O485        O  0.68526979  0.86762198  0.04120410    -0.61500
O486        O  0.67699185  0.80810838  0.98118165    -0.69900
O487        O  0.63084563  0.81487971  0.98101228    -0.69500
O488        O  0.63911585  0.87363037  0.04057126    -0.60700
O489        O  0.63986403  0.87331526  0.98173767    -0.73200
O490        O  0.62984138  0.81509978  0.04159802    -0.72000
Cu491      Cu  0.68271386  0.83730896  0.01167665     1.04600
Cu492      Cu  0.63339919  0.84420433  0.01121029     1.04300
C493        C  0.65139084  0.80374368  0.05267219     0.94300
C494        C  0.66416513  0.88006515  0.97251251     0.93400
C495        C  0.66334247  0.88050245  0.04984260     0.85600
C496        C  0.65274259  0.80344114  0.97063960     0.91800
C497        C  0.59740473  0.26720859  0.85687422     0.87500
C498        C  0.60328312  0.24288700  0.83675695    -0.52700
C499        C  0.62987962  0.23241071  0.83864419     0.10400
C500        C  0.64833074  0.24747869  0.86082192     0.21400
C501        C  0.60456694  0.25600905  0.88613321    -0.53400
C502        C  0.63131087  0.24602054  0.88836775     0.10500
C503        C  0.62031099  0.28910630  0.85066582    -0.53000
C504        C  0.64699272  0.27883275  0.85294852     0.11100
H505        H  0.58774032  0.23464426  0.82222125     0.15600
H506        H  0.67002823  0.23911757  0.86261774     0.01400
H507        H  0.59011148  0.25685108  0.90378782     0.15900
H508        H  0.61585742  0.31105758  0.84637531     0.15700
O509        O  0.63800115  0.14640328  0.97705958    -0.71900
O510        O  0.63548622  0.20483807  0.03753639    -0.72900
O511        O  0.63178252  0.20477246  0.97682633    -0.61500
O512        O  0.64104245  0.14655891  0.03581286    -0.69900
O513        O  0.68741691  0.15056991  0.03399891    -0.69500
O514        O  0.67811273  0.20944038  0.97355640    -0.60700
O515        O  0.68186302  0.20952977  0.03516869    -0.73200
O516        O  0.68433560  0.15074819  0.97466698    -0.72000
Cu517      Cu  0.63501663  0.17578890  0.00689200     1.04600
Cu518      Cu  0.68458633  0.18057358  0.00424252     1.04300
C519        C  0.66160653  0.13896962  0.96665939     0.94300
C520        C  0.65845909  0.21468786  0.04726298     0.93400
C521        C  0.65339058  0.21459153  0.96441710     0.85600
C522        C  0.66534770  0.13898684  0.04408363     0.91800
O523        O  0.64413565  0.98378657  0.19670092    -0.71900
O524        O  0.64658140  0.04170989  0.13651297    -0.72900
O525        O  0.64635880  0.98262176  0.13797593    -0.61500
O526        O  0.64407405  0.04395556  0.19510869    -0.69900
O527        O  0.69068055  0.04482277  0.19668353    -0.69500
O528        O  0.69289217  0.98188372  0.13893437    -0.60700
O529        O  0.69314329  0.04209662  0.13727592    -0.73200
O530        O  0.69076825  0.98354511  0.19846872    -0.72000
Cu531      Cu  0.64379780  0.01301132  0.16664558     1.04600
Cu532      Cu  0.69361927  0.01308539  0.16805775     1.04300
C533        C  0.66699534  0.97368464  0.20620126     0.94300
C534        C  0.66994904  0.05124209  0.12739487     0.93400
C535        C  0.66960884  0.97239739  0.12937551     0.85600
C536        C  0.66683913  0.05494775  0.20393863     0.91800
C537        C  0.61450867  0.26988441  0.15837428     0.87500
C538        C  0.63813325  0.29152572  0.16281280    -0.52700
C539        C  0.66456300  0.28080892  0.15901509     0.10400
C540        C  0.66487805  0.24929060  0.15137767     0.21400
C541        C  0.61963151  0.25817511  0.12894166    -0.53400
C542        C  0.64595563  0.24769365  0.12498823     0.10500
C543        C  0.62134745  0.24580765  0.17838686    -0.53000
C544        C  0.64766490  0.23495815  0.17512756     0.11100
H545        H  0.63427385  0.31348582  0.16763957     0.15600
H546        H  0.68628143  0.24054527  0.14828543     0.01400
H547        H  0.60401408  0.25886900  0.11234724     0.15900
H548        H  0.60672408  0.23828090  0.19423892     0.15700
O549        O  0.36043645  0.87141989  0.98545110    -0.71900
O550        O  0.36668162  0.81213928  0.04556939    -0.72900
O551        O  0.36616229  0.81271453  0.98447726    -0.61500
O552        O  0.36100979  0.87113176  0.04501121    -0.69900
O553        O  0.31461183  0.86710885  0.04562180    -0.69500
O554        O  0.31968371  0.80852895  0.98500537    -0.60700
O555        O  0.32022911  0.80802157  0.04607148    -0.73200
O556        O  0.31406071  0.86728942  0.98591978    -0.72000
Cu557      Cu  0.36519181  0.84181103  0.01516472     1.04600
Cu558      Cu  0.31555332  0.83736806  0.01572264     1.04300
C559        C  0.33634510  0.87861788  0.97605680     0.94300
C560        C  0.34427742  0.80179200  0.05618415     0.93400
C561        C  0.34351814  0.80286404  0.97403486     0.85600
C562        C  0.33710744  0.87857926  0.05471276     0.91800
O563        O  0.30583370  0.97245711  0.88021907    -0.71900
O564        O  0.30411304  0.03514104  0.82285492    -0.72900
O565        O  0.30518063  0.97424292  0.82065078    -0.61500
O566        O  0.30432060  0.03245104  0.88219963    -0.69900
O567        O  0.35084632  0.03382030  0.88154485    -0.69500
O568        O  0.35181627  0.97524705  0.82036095    -0.60700
O569        O  0.35075906  0.03576150  0.82241012    -0.73200
O570        O  0.35234928  0.97413200  0.87962737    -0.72000
Cu571      Cu  0.30320402  0.00351444  0.85132621     1.04600
Cu572      Cu  0.35300914  0.00475165  0.85081887     1.04300
C573        C  0.32956309  0.96356954  0.88913260     0.94300
C574        C  0.32729064  0.04602499  0.81465888     0.93400
C575        C  0.32865719  0.96479283  0.81172885     0.85600
C576        C  0.32743119  0.04249693  0.89149359     0.91800
C577        C  0.38143083  0.85194139  0.27282841     0.87500
C578        C  0.37695121  0.83221993  0.24799343    -0.52700
C579        C  0.35099305  0.83416790  0.23623721     0.10400
C580        C  0.33164182  0.85616826  0.25048249     0.21400
C581        C  0.37491202  0.88126629  0.26178248    -0.53400
C582        C  0.34890678  0.88372250  0.25032665     0.10500
C583        C  0.35729820  0.84525797  0.29341396    -0.53000
C584        C  0.33107383  0.84756179  0.28171916     0.11100
H585        H  0.39280826  0.81752957  0.24063315     0.15600
H586        H  0.31050145  0.85805766  0.24084534     0.01400
H587        H  0.38952582  0.89878387  0.26323520     0.15900
H588        H  0.36062275  0.83990112  0.31530149     0.15700
O589        O  0.31121546  0.97105387  0.20968365    -0.71900
O590        O  0.30868871  0.03253990  0.15246243    -0.72900
O591        O  0.30962119  0.97298847  0.15068190    -0.61500
O592        O  0.31109628  0.03246163  0.21132879    -0.69900
O593        O  0.35774426  0.03212480  0.20977832    -0.69500
O594        O  0.35614911  0.97455485  0.14913945    -0.60700
O595        O  0.35525203  0.03372012  0.15121721    -0.73200
O596        O  0.35785020  0.97138395  0.20763315    -0.72000
Cu597      Cu  0.30848840  0.00223792  0.18136578     1.04600
Cu598      Cu  0.35832583  0.00295604  0.17963379     1.04300
C599        C  0.33489072  0.96030086  0.21606014     0.94300
C600        C  0.33149021  0.04277912  0.14271050     0.93400
C601        C  0.33292865  0.96455645  0.14026281     0.85600
C602        C  0.33482316  0.04285111  0.21850539     0.91800
O603        O  0.35059103  0.13744275  0.04698276    -0.71900
O604        O  0.34978806  0.19705516  0.98805307    -0.72900
O605        O  0.35027911  0.19620301  0.04897115    -0.61500
O606        O  0.34984476  0.13798766  0.98748767    -0.69900
O607        O  0.30330142  0.13756251  0.98805271    -0.69500
O608        O  0.30365890  0.19605920  0.04985918    -0.60700
O609        O  0.30312914  0.19696429  0.98833977    -0.73200
O610        O  0.30401500  0.13692519  0.04779585    -0.72000
Cu611      Cu  0.35168193  0.16739145  0.01783727     1.04600
Cu612      Cu  0.30185643  0.16709371  0.01851263     1.04300
C613        C  0.32756688  0.12783347  0.05684061     0.94300
C614        C  0.32644496  0.20511821  0.97775324     0.93400
C615        C  0.32715659  0.20390858  0.06024056     0.85600
C616        C  0.32655395  0.12841562  0.97813717     0.91800
C617        C  0.33298331  0.24355255  0.90087001     0.87500
C618        C  0.36240871  0.25591354  0.89627906    -0.52700
C619        C  0.36649324  0.26691719  0.87016027     0.10400
C620        C  0.34048107  0.26450138  0.85085319     0.21400
C621        C  0.31270663  0.26738520  0.89390476    -0.53400
C622        C  0.31652007  0.27849248  0.86783691     0.10500
C623        C  0.32917197  0.22197687  0.87719444    -0.53000
C624        C  0.33311020  0.23279588  0.85091758     0.11100
H625        H  0.37848660  0.25628401  0.91242778     0.15600
H626        H  0.34367267  0.27355070  0.82961632     0.01400
H627        H  0.29695823  0.27514200  0.90851239     0.15900
H628        H  0.32420842  0.20001554  0.88090796     0.15700
C629        C  0.14312505  0.61031315  0.27352993     0.87500
C630        C  0.14696551  0.63349252  0.29557862    -0.52700
C631        C  0.14390537  0.65998243  0.28510635     0.10400
C632        C  0.13734032  0.66076276  0.25331266     0.21400
C633        C  0.11410987  0.61563011  0.26077059    -0.53400
C634        C  0.11083993  0.64205194  0.25027613     0.10500
C635        C  0.16411316  0.61714825  0.25034080    -0.53000
C636        C  0.16134386  0.64345648  0.23965463     0.11100
H637        H  0.15101542  0.62930827  0.31760594     0.15600
H638        H  0.13485627  0.68224728  0.24462634     0.01400
H639        H  0.09752769  0.59992300  0.26024734     0.15900
H640        H  0.17985482  0.60237092  0.24290788     0.15700
C641        C  0.87536676  0.64131851  0.24507111     0.87500
C642        C  0.86815179  0.66151344  0.26885461    -0.52700
C643        C  0.84109005  0.65965704  0.27787372     0.10400
C644        C  0.82348310  0.63721550  0.26218205     0.21400
C645        C  0.86779802  0.61208135  0.25605769    -0.53400
C646        C  0.84063586  0.60969158  0.26494158     0.10500
C647        C  0.85373211  0.64741897  0.22200310    -0.53000
C648        C  0.82650521  0.64529187  0.23088846     0.11100
H649        H  0.88312446  0.67639012  0.27760322     0.15600
H650        H  0.80139841  0.63552664  0.26955379     0.01400
H651        H  0.88263991  0.59477952  0.25679945     0.15900
H652        H  0.85942724  0.65291880  0.20061206     0.15700
O653        O  0.02011904  0.69610821  0.81179292    -0.71900
O654        O  0.96000899  0.69909470  0.87309927    -0.72900
O655        O  0.02016043  0.70060082  0.87145295    -0.61500
O656        O  0.95807175  0.69540278  0.81388752    -0.69900
O657        O  0.95917232  0.64888321  0.81684208    -0.69500
O658        O  0.02115068  0.65409710  0.87305179    -0.60700
O659        O  0.96208937  0.65267161  0.87505477    -0.73200
O660        O  0.01993483  0.64959881  0.81442413    -0.72000
Cu661      Cu  0.98961339  0.69953822  0.84218348     1.04600
Cu662      Cu  0.99065974  0.64983831  0.84474539     1.04300
C663        C  0.03033061  0.67223815  0.80460561     0.94300
C664        C  0.95165126  0.67579964  0.88365136     0.93400
C665        C  0.03027961  0.67789429  0.88146786     0.85600
C666        C  0.94758041  0.67136158  0.80807970     0.91800
O667        O  0.85639548  0.68533604  0.04174762    -0.71900
O668        O  0.79664426  0.68187380  0.98136837    -0.72900
O669        O  0.79742029  0.67861125  0.04239476    -0.61500
O670        O  0.85559081  0.68924159  0.98179482    -0.69900
O671        O  0.86006945  0.64299827  0.97919310    -0.69500
O672        O  0.80237101  0.63230831  0.03996064    -0.60700
O673        O  0.80153728  0.63555344  0.97929173    -0.73200
O674        O  0.86095001  0.63914156  0.03851215    -0.72000
Cu675      Cu  0.82612454  0.68540735  0.01193597     1.04600
Cu676      Cu  0.83125773  0.63594394  0.00913219     1.04300
C677        C  0.86806121  0.66247985  0.04965830     0.94300
C678        C  0.79086008  0.65822640  0.96995711     0.93400
C679        C  0.79193485  0.65405358  0.05168591     0.85600
C680        C  0.86699008  0.66757532  0.97082831     0.91800
C681        C  0.20857180  0.66181151  0.83677907     0.87500
C682        C  0.23451015  0.68083961  0.83348584    -0.52700
C683        C  0.25423828  0.67679691  0.85392665     0.10400
C684        C  0.24636897  0.65422800  0.87554336     0.21400
C685        C  0.22026084  0.63181096  0.83779566    -0.53400
C686        C  0.23992854  0.62785902  0.85810684     0.10500
C687        C  0.19775174  0.66756598  0.86664918    -0.53000
C688        C  0.21773076  0.66364278  0.88686780     0.11100
H689        H  0.23679643  0.69636853  0.81696065     0.15600
H690        H  0.26246596  0.65098248  0.89208868     0.01400
H691        H  0.21364221  0.61518869  0.82361665     0.15900
H692        H  0.17634462  0.67388840  0.87137394     0.15700
O693        O  0.12115595  0.64772941  0.03529177    -0.71900
O694        O  0.18020958  0.64577186  0.97614372    -0.72900
O695        O  0.17953761  0.64119203  0.03615208    -0.61500
O696        O  0.12217382  0.65162690  0.97666270    -0.69900
O697        O  0.12528013  0.69799283  0.97950835    -0.69500
O698        O  0.18439125  0.68745619  0.03979857    -0.60700
O699        O  0.18427055  0.69220797  0.97878611    -0.73200
O700        O  0.12541286  0.69396783  0.03920950    -0.72000
Cu701      Cu  0.15079408  0.64506981  0.00601166     1.04600
Cu702      Cu  0.15525384  0.69462297  0.00950597     1.04300
C703        C  0.11375525  0.67093802  0.04649248     0.94300
C704        C  0.18998910  0.66888780  0.96683220     0.93400
C705        C  0.19002223  0.66259545  0.04828543     0.85600
C706        C  0.11461245  0.67593852  0.96842577     0.91800
O707        O  0.02167052  0.68671131  0.14682709    -0.71900
O708        O  0.96298167  0.67573975  0.20659937    -0.72900
O709        O  0.02427787  0.67933263  0.20563488    -0.61500
O710        O  0.96205571  0.68333668  0.14791332    -0.69900
O711        O  0.96431117  0.63712424  0.14283627    -0.69500
O712        O  0.02642828  0.63315516  0.19959065    -0.60700
O713        O  0.96581945  0.62948527  0.20103666    -0.73200
O714        O  0.02308502  0.64046195  0.14129352    -0.72000
Cu715      Cu  0.99269056  0.68293522  0.17723190     1.04600
Cu716      Cu  0.99505058  0.63350310  0.17123453     1.04300
C717        C  0.03114323  0.66501141  0.13421709     0.94300
C718        C  0.95397503  0.65097247  0.21170451     0.93400
C719        C  0.03610518  0.65572073  0.21041195     0.85600
C720        C  0.95354606  0.66074186  0.13610998     0.91800
C721        C  0.22750443  0.64997585  0.12465795     0.87500
C722        C  0.25162335  0.66992730  0.13141166    -0.52700
C723        C  0.26164940  0.66739154  0.15797958     0.10400
C724        C  0.24644022  0.64474500  0.17569149     0.21400
C725        C  0.23878823  0.62045464  0.13117591    -0.53400
C726        C  0.24864107  0.61754285  0.15798145     0.10500
C727        C  0.20524248  0.65559965  0.14726466    -0.53000
C728        C  0.21502535  0.65285943  0.17399941     0.11100
H729        H  0.26002280  0.68499194  0.11643982     0.15600
H730        H  0.25453783  0.64259668  0.19742403     0.01400
H731        H  0.23897737  0.60343659  0.11598308     0.15900
H732        H  0.18348829  0.66059502  0.14253316     0.15700
O733        O  0.86184184  0.32165568  0.97549164    -0.71900
O734        O  0.80312798  0.32388777  0.03621387    -0.72900
O735        O  0.80237946  0.32476008  0.97497831    -0.61500
O736        O  0.86225759  0.32148768  0.03498788    -0.69900
O737        O  0.86416450  0.36800070  0.03438459    -0.69500
O738        O  0.80449018  0.37133322  0.97560573    -0.60700
O739        O  0.80541716  0.37046506  0.03644207    -0.73200
O740        O  0.86370713  0.36817120  0.97522802    -0.72000
Cu741      Cu  0.83210366  0.32129747  0.00533072     1.04600
Cu742      Cu  0.83431613  0.37107452  0.00537816     1.04300
C743        C  0.87234279  0.34446538  0.96604248     0.94300
C744        C  0.79651394  0.34748920  0.04709684     0.93400
C745        C  0.79497537  0.34860227  0.96509412     0.85600
C746        C  0.87262977  0.34453804  0.04410485     0.91800
O747        O  0.96694508  0.36349821  0.86963686    -0.71900
O748        O  0.02332047  0.36303094  0.80746813    -0.72900
O749        O  0.96281301  0.36221787  0.81122684    -0.61500
O750        O  0.02607771  0.36377253  0.86658539    -0.69900
O751        O  0.02649653  0.31723235  0.86735958    -0.69500
O752        O  0.96284645  0.31556560  0.81191366    -0.60700
O753        O  0.02401874  0.31639885  0.80791572    -0.73200
O754        O  0.96698291  0.31695401  0.87072901    -0.72000
Cu755      Cu  0.99483856  0.36468142  0.83844384     1.04600
Cu756      Cu  0.99516360  0.31485235  0.83923835     1.04300
C757        C  0.95794612  0.34048720  0.88001799     0.94300
C758        C  0.03360238  0.33983434  0.79893387     0.93400
C759        C  0.95164137  0.33875796  0.80457452     0.85600
C760        C  0.03584590  0.34076798  0.87628826     0.91800
O761        O  0.02375253  0.32863712  0.20311944    -0.71900
O762        O  0.96437471  0.32422059  0.14357471    -0.72900
O763        O  0.02385184  0.32539411  0.14418953    -0.61500
O764        O  0.96267278  0.32776453  0.20266884    -0.69900
O765        O  0.96234075  0.37434106  0.20055781    -0.69500
O766        O  0.02293873  0.37187791  0.14180496    -0.60700
O767        O  0.96376539  0.37073036  0.14157408    -0.73200
O768        O  0.02350617  0.37521713  0.20073881    -0.72000
Cu769      Cu  0.99366382  0.32488823  0.17374155     1.04600
Cu770      Cu  0.99308240  0.37465790  0.17132672     1.04300
C771        C  0.03420638  0.35241042  0.20984887     0.94300
C772        C  0.95499446  0.34689849  0.13284830     0.93400
C773        C  0.03279648  0.34834654  0.13350877     0.85600
C774        C  0.95190830  0.35135106  0.20961196     0.91800
C775        C  0.84307339  0.32369945  0.28200039     0.87500
C776        C  0.82439983  0.32006914  0.25596874    -0.52700
C777        C  0.82788764  0.34080188  0.23642618     0.10400
C778        C  0.84982922  0.36328601  0.24481457     0.21400
C779        C  0.87310750  0.32576668  0.27064131    -0.53400
C780        C  0.87680246  0.34642314  0.25124786     0.10500
C781        C  0.83629408  0.35324453  0.29312867    -0.53000
C782        C  0.83974453  0.37407117  0.27371089     0.11100
H783        H  0.80935808  0.30307069  0.25352490     0.15600
H784        H  0.85274399  0.38013385  0.22896771     0.01400
H785        H  0.88999179  0.31196110  0.27726706     0.15900
H786        H  0.82954230  0.35733162  0.31452868     0.15700
O787        O  0.12648101  0.32321195  0.03670349    -0.71900
O788        O  0.18583074  0.32269728  0.97637354    -0.72900
O789        O  0.18561045  0.32482801  0.03745762    -0.61500
O790        O  0.12679611  0.32125874  0.97677562    -0.69900
O791        O  0.12574605  0.36777321  0.97548144    -0.69500
O792        O  0.18412007  0.37141785  0.03610945    -0.60700
O793        O  0.18456001  0.36931809  0.97540903    -0.73200
O794        O  0.12512790  0.36971353  0.03503066    -0.72000
Cu795      Cu  0.15639372  0.32135536  0.00690365     1.04600
Cu796      Cu  0.15502848  0.37114377  0.00547069     1.04300
C797        C  0.11650068  0.34654835  0.04545633     0.94300
C798        C  0.19319083  0.34601242  0.96536156     0.93400
C799        C  0.19285936  0.34872564  0.04731607     0.85600
C800        C  0.11722784  0.34402651  0.96631028     0.91800
C801        C  0.25236147  0.39546475  0.86020619     0.87500
C802        C  0.27541296  0.37346125  0.85486774    -0.52700
C803        C  0.26595096  0.34638141  0.85666963     0.10400
C804        C  0.23436502  0.34389535  0.86354382     0.21400
C805        C  0.22918685  0.38865582  0.83916363    -0.53400
C806        C  0.21975347  0.36168340  0.84069675     0.10500
C807        C  0.24020677  0.38800569  0.88892715    -0.53000
C808        C  0.23099252  0.36102911  0.89088860     0.11100
H809        H  0.29728180  0.37878073  0.85104339     0.15600
H810        H  0.22662362  0.32193052  0.86506154     0.01400
H811        H  0.22114747  0.40375410  0.82409769     0.15900
H812        H  0.23931345  0.40270127  0.90638410     0.15700
C813        C  0.16106939  0.21877838  0.66338576     0.87500
C814        C  0.13052352  0.20968770  0.66810509    -0.52700
C815        C  0.11146949  0.23076032  0.66424055     0.10400
C816        C  0.12482884  0.25905904  0.65555336     0.21400
C817        C  0.16176582  0.23106727  0.63374541    -0.53400
C818        C  0.14302608  0.25216414  0.62952075     0.10500
C819        C  0.16539548  0.24406664  0.68301249    -0.53000
C820        C  0.14635272  0.26519120  0.67893448     0.11100
H821        H  0.12452171  0.18858236  0.67436510     0.15600
H822        H  0.10941137  0.27622155  0.65221815     0.01400
H823        H  0.17633958  0.22408105  0.61760717     0.15900
H824        H  0.18175675  0.24503681  0.69884236     0.15700
C825        C  0.84901656  0.26553129  0.63194954     0.87500
C826        C  0.84288627  0.28795602  0.65434362    -0.52700
C827        C  0.84377655  0.27794000  0.68120812     0.10400
C828        C  0.85067760  0.24637590  0.68316358     0.21400
C829        C  0.87758936  0.25330735  0.64002186    -0.53400
C830        C  0.87862595  0.24341306  0.66684455     0.10500
C831        C  0.82780462  0.24211362  0.63756049    -0.53000
C832        C  0.82843618  0.23210206  0.66429710     0.11100
H833        H  0.83862793  0.30981285  0.64942639     0.15600
H834        H  0.85139273  0.23815163  0.70494906     0.01400
H835        H  0.89547021  0.25262044  0.62582169     0.15900
H836        H  0.81317302  0.23439343  0.62183798     0.15700
O837        O  0.95231873  0.87100991  0.65797380    -0.71900
O838        O  0.01230941  0.81482976  0.64234922    -0.72900
O839        O  0.95189646  0.81318408  0.64754329    -0.61500
O840        O  0.01122353  0.87260705  0.65321085    -0.69900
O841        O  0.01533313  0.86489624  0.69888429    -0.69500
O842        O  0.95492465  0.80567020  0.69341052    -0.60700
O843        O  0.01612309  0.80668762  0.68805987    -0.73200
O844        O  0.95570802  0.86440290  0.70387418    -0.72000
Cu845      Cu  0.98177957  0.84300052  0.64874163     1.04600
Cu846      Cu  0.98564059  0.83488227  0.69769650     1.04300
C847        C  0.94455036  0.87688860  0.68294316     0.94300
C848        C  0.02480720  0.80316833  0.66287554     0.93400
C849        C  0.94304919  0.80116648  0.66979351     0.85600
C850        C  0.02270408  0.87817449  0.67678228     0.91800
O851        O  0.85101567  0.97352019  0.71525223    -0.71900
O852        O  0.79175804  0.03480016  0.71089688    -0.72900
O853        O  0.79169804  0.97321359  0.70966994    -0.61500
O854        O  0.85152890  0.03375833  0.71671825    -0.69900
O855        O  0.85452476  0.03400142  0.67033756    -0.69500
O856        O  0.79543521  0.97492229  0.66325107    -0.60700
O857        O  0.79588650  0.03504867  0.66448547    -0.73200
O858        O  0.85355815  0.97506023  0.66884029    -0.72000
Cu859      Cu  0.82109605  0.00385829  0.71490133     1.04600
Cu860      Cu  0.82484023  0.00486547  0.66528665     1.04300
C861        C  0.86130974  0.96446704  0.69213949     0.94300
C862        C  0.78555958  0.04524128  0.68694011     0.93400
C863        C  0.78559962  0.96352484  0.68536365     0.85600
C864        C  0.86278625  0.04307674  0.69417270     0.91800
C865        C  0.25587415  0.85054937  0.62344005     0.87500
C866        C  0.23331449  0.82831448  0.62828214    -0.52700
C867        C  0.22073450  0.82967344  0.65387466     0.10400
C868        C  0.23243904  0.85368467  0.67286348     0.21400
C869        C  0.24137359  0.87873612  0.62906770    -0.53400
C870        C  0.22925726  0.88064492  0.65496907     0.10500
C871        C  0.27677731  0.84707594  0.64776784    -0.53000
C872        C  0.26474423  0.84897834  0.67381733     0.11100
H873        H  0.22720089  0.81311750  0.61236446     0.15600
H874        H  0.22233863  0.85511934  0.69383335     0.01400
H875        H  0.24111007  0.89587237  0.61403057     0.15900
H876        H  0.29923709  0.84444621  0.64464828     0.15700
O877        O  0.11998257  0.97041405  0.65561662    -0.71900
O878        O  0.18176573  0.02683858  0.65198137    -0.72900
O879        O  0.17860770  0.96626334  0.65009868    -0.61500
O880        O  0.12314679  0.02926271  0.65772135    -0.69900
O881        O  0.12662716  0.02789388  0.70405781    -0.69500
O882        O  0.18294492  0.96448090  0.69641662    -0.60700
O883        O  0.18588720  0.02594046  0.69837838    -0.73200
O884        O  0.12368157  0.96809285  0.70192000    -0.72000
Cu885      Cu  0.15095395  0.99823380  0.65232659     1.04600
Cu886      Cu  0.15517649  0.99651559  0.70187609     1.04300
C887        C  0.11178623  0.96048355  0.67909561     0.94300
C888        C  0.19234791  0.03651261  0.67456852     0.93400
C889        C  0.18840786  0.95452093  0.67206951     0.85600
C890        C  0.11578895  0.03835352  0.68187285     0.91800
O891        O  0.96284372  0.13725598  0.71379971    -0.71900
O892        O  0.02400098  0.19607514  0.70292075    -0.72900
O893        O  0.96265883  0.19661348  0.70752818    -0.61500
O894        O  0.02307196  0.13673130  0.70948140    -0.69900
O895        O  0.01965913  0.13284149  0.66328297    -0.69500
O896        O  0.96014221  0.19180387  0.66125085    -0.60700
O897        O  0.02033917  0.19137435  0.65672371    -0.73200
O898        O  0.96062245  0.13342319  0.66753864    -0.72000
Cu899      Cu  0.99328064  0.16706142  0.71014879     1.04600
Cu900      Cu  0.99007451  0.16235799  0.66072355     1.04300
C901        C  0.95211307  0.12604987  0.69186592     0.94300
C902        C  0.03259814  0.20178941  0.67809492     0.93400
C903        C  0.95105312  0.20245184  0.68407333     0.85600
C904        C  0.03080357  0.12529531  0.68642674     0.91800
C905        C  0.25570467  0.13941772  0.62265551     0.87500
C906        C  0.24371817  0.11057163  0.63026172    -0.52700
C907        C  0.23357943  0.10896096  0.65697413     0.10400
C908        C  0.23602120  0.13665933  0.67370350     0.21400
C909        C  0.23192306  0.16020799  0.62845665    -0.53400
C910        C  0.22159900  0.15894612  0.65511584     0.10500
C911        C  0.27788294  0.14555568  0.64538578    -0.53000
C912        C  0.26754654  0.14408238  0.67219015     0.11100
H913        H  0.24333887  0.09291198  0.61579566     0.15600
H914        H  0.22752855  0.13545628  0.69539341     0.01400
H915        H  0.22409177  0.17489222  0.61289092     0.15900
H916        H  0.29970176  0.15040821  0.64071961     0.15700
O917        O  0.85040075  0.02692212  0.33577137    -0.71900
O918        O  0.78821795  0.96960742  0.33589675    -0.72900
O919        O  0.79127659  0.03055601  0.33691869    -0.61500
O920        O  0.84713630  0.96757048  0.33417336    -0.69900
O921        O  0.84800604  0.96650191  0.38067007    -0.69500
O922        O  0.79250472  0.02985378  0.38349882    -0.60700
O923        O  0.78925256  0.96914172  0.38249839    -0.73200
O924        O  0.85149024  0.02577148  0.38225442    -0.72000
Cu925      Cu  0.81898164  0.99875838  0.33406601     1.04600
Cu926      Cu  0.82011624  0.99782830  0.38384415     1.04300
C927        C  0.86099308  0.03514988  0.35901533     0.94300
C928        C  0.78047147  0.95906498  0.35930531     0.93400
C929        C  0.78433390  0.04104150  0.36057886     0.85600
C930        C  0.85644810  0.95710777  0.35698148     0.91800
O931        O  0.01224942  0.80299489  0.33313741    -0.71900
O932        O  0.95043231  0.86065226  0.33151617    -0.72900
O933        O  0.01030036  0.86206361  0.32926307    -0.61500
O934        O  0.95103197  0.80153236  0.33534487    -0.69900
O935        O  0.95247109  0.80423019  0.38182760    -0.69500
O936        O  0.01162355  0.86431641  0.37568580    -0.60700
O937        O  0.95210981  0.86298720  0.37794264    -0.73200
O938        O  0.01338989  0.80562591  0.37965374    -0.72000
Cu939      Cu  0.98092113  0.83148341  0.33066844     1.04600
Cu940      Cu  0.98243444  0.83422220  0.38034845     1.04300
C941        C  0.02360591  0.79666478  0.35656318     0.94300
C942        C  0.94154406  0.87092595  0.35466630     0.93400
C943        C  0.02048483  0.87260486  0.35174235     0.85600
C944        C  0.94140434  0.79457412  0.35941539     0.91800
O945        O  0.02095684  0.18556673  0.37976631    -0.71900
O946        O  0.96070212  0.12638108  0.38172849    -0.72900
O947        O  0.02052775  0.12641899  0.38124930    -0.61500
O948        O  0.95992238  0.18549852  0.38014918    -0.69900
O949        O  0.95964533  0.18473441  0.33355794    -0.69500
O950        O  0.01995332  0.12610394  0.33474758    -0.60700
O951        O  0.96042861  0.12577492  0.33522265    -0.73200
O952        O  0.02059158  0.18493823  0.33316898    -0.72000
Cu953      Cu  0.99052706  0.15621510  0.38238155     1.04600
Cu954      Cu  0.99013881  0.15551263  0.33259780     1.04300
C955        C  0.03129033  0.19329924  0.35625317     0.94300
C956        C  0.95099772  0.11675083  0.35865948     0.93400
C957        C  0.02988518  0.11702699  0.35790289     0.85600
C958        C  0.94928379  0.19317647  0.35677887     0.91800
C959        C  0.84221933  0.25794201  0.39765671     0.87500
C960        C  0.82171020  0.23406552  0.39165761    -0.52700
C961        C  0.82484660  0.22239544  0.36572486     0.10400
C962        C  0.84858078  0.23584107  0.34798887     0.21400
C963        C  0.87140484  0.24551816  0.39282671    -0.53400
C964        C  0.87494125  0.23404117  0.36689018     0.10500
C965        C  0.83801010  0.27897165  0.37368572    -0.53000
C966        C  0.84134635  0.26750198  0.34761692     0.11100
H967        H  0.80591053  0.22703788  0.40660644     0.15600
H968        H  0.85132598  0.22635844  0.32686296     0.01400
H969        H  0.88788973  0.24576352  0.40857985     0.15900
H970        H  0.83331539  0.30104472  0.37703572     0.15700
O971        O  0.12584819  0.02063576  0.37544901    -0.71900
O972        O  0.18162852  0.95751336  0.36934761    -0.72900
O973        O  0.18512785  0.01835116  0.37312952    -0.61500
O974        O  0.12248527  0.96142367  0.37163644    -0.69900
O975        O  0.12054995  0.96380886  0.32526030    -0.69500
O976        O  0.18382506  0.02082562  0.32666029    -0.60700
O977        O  0.18006118  0.95962053  0.32285765    -0.73200
O978        O  0.12451826  0.02319545  0.32904261    -0.72000
Cu979      Cu  0.15405125  0.98933325  0.37394754     1.04600
Cu980      Cu  0.15240843  0.99194343  0.32430692     1.04300
C981        C  0.11614981  0.03172627  0.35309186     0.94300
C982        C  0.18851947  0.94774336  0.34533476     0.93400
C983        C  0.19316686  0.02971976  0.35020937     0.85600
C984        C  0.11133827  0.95385917  0.34843637     0.91800
C985        C  0.25432348  0.84290534  0.38776923     0.87500
C986        C  0.27656380  0.83931195  0.36481098    -0.52700
C987        C  0.26634479  0.84178444  0.33819326     0.10400
C988        C  0.23414334  0.84725050  0.33712330     0.21400
C989        C  0.24073260  0.87139429  0.38184083    -0.53400
C990        C  0.23021588  0.87390170  0.35538124     0.10500
C991        C  0.23168653  0.82119590  0.38127789    -0.53000
C992        C  0.22076640  0.82329998  0.35497840     0.11100
H993        H  0.29872835  0.83623344  0.36926450     0.15600
H994        H  0.22544069  0.84920804  0.31561323     0.01400
H995        H  0.23954461  0.88818332  0.39726456     0.15900
H996        H  0.22417948  0.80601499  0.39658334     0.15700
C997        C  0.14068552  0.25311855  0.39769808     0.87500
C998        C  0.11103995  0.24174457  0.39292524    -0.52700
C999        C  0.10654287  0.23222094  0.36636285     0.10400
C1000       C  0.13245665  0.23469713  0.34687798     0.21400
C1001       C  0.16037980  0.22928748  0.38945135    -0.53400
C1002       C  0.15624490  0.21953121  0.36293276     0.10500
C1003       C  0.14482868  0.27572071  0.37508995    -0.53000
C1004       C  0.14051776  0.26612471  0.34839792     0.11100
H1005       H  0.09496730  0.24125695  0.40915363     0.15600
H1006       H  0.12892838  0.22672613  0.32525904     0.01400
H1007       H  0.17630321  0.22081161  0.40340477     0.15900
H1008       H  0.15027982  0.29738473  0.37978354     0.15700
C1009       C  0.21371895  0.15799263  0.35336985     0.87500
C1010       C  0.22669011  0.15963507  0.38273592    -0.52700
C1011       C  0.24796961  0.14109487  0.38708763     0.10400
C1012       C  0.25441514  0.12228038  0.36133710     0.21400
C1013       C  0.23841326  0.16199325  0.33311068    -0.53400
C1014       C  0.25984039  0.14342484  0.33719194     0.10500
C1015       C  0.20465793  0.12731092  0.34986708    -0.53000
C1016       C  0.22582980  0.10841780  0.35400508     0.11100
H1017       H  0.21980822  0.17447067  0.39866812     0.15600
H1018       H  0.27178870  0.10712566  0.36476049     0.01400
H1019       H  0.23909326  0.17833600  0.31724268     0.15900
H1020       H  0.18327645  0.12105243  0.34491507     0.15700
O1021       O  0.35933177  0.87169047  0.53270045    -0.71900
O1022       O  0.30026079  0.86591657  0.47356133    -0.72900
O1023       O  0.30075149  0.86902874  0.53404025    -0.61500
O1024       O  0.35915653  0.86874170  0.47360564    -0.69900
O1025       O  0.36214934  0.82233959  0.47572293    -0.69500
O1026       O  0.30279615  0.82248336  0.53630140    -0.60700
O1027       O  0.30273618  0.81935963  0.47528440    -0.73200
O1028       O  0.36158868  0.82524208  0.53523127    -0.72000
Cu1029     Cu  0.32960105  0.87038701  0.50332907     1.04600
Cu1030     Cu  0.33217589  0.82065702  0.50564086     1.04300
C1031       C  0.36955670  0.84946890  0.54358648     0.94300
C1032       C  0.29329077  0.84181901  0.46415471     0.93400
C1033       C  0.29403510  0.84597672  0.54590573     0.85600
C1034       C  0.37025165  0.84575858  0.46537017     0.91800
O1035       O  0.12701947  0.30035235  0.48409114    -0.71900
O1036       O  0.13241228  0.36395359  0.53782254    -0.72900
O1037       O  0.13338552  0.35826400  0.47939714    -0.61500
O1038       O  0.12567314  0.30566706  0.54404578    -0.69900
O1039       O  0.17205101  0.30090365  0.54543327    -0.69500
O1040       O  0.17981466  0.35487156  0.48012981    -0.60700
O1041       O  0.17878857  0.35992676  0.53967921    -0.73200
O1042       O  0.17353071  0.29616308  0.48456586    -0.72000
Cu1043     Cu  0.12810390  0.33202936  0.51138340     1.04600
Cu1044     Cu  0.17775918  0.32754534  0.51258821     1.04300
C1045       C  0.14957107  0.28967654  0.47441931     0.94300
C1046       C  0.15616377  0.37238733  0.54695084     0.93400
C1047       C  0.15738411  0.36515556  0.46957310     0.85600
C1048       C  0.14765861  0.29576886  0.55558395     0.91800
O1049       O  0.35491014  0.17326863  0.53475615    -0.71900
O1050       O  0.29777983  0.16847620  0.47184723    -0.72900
O1051       O  0.29610956  0.16771909  0.53326397    -0.61500
O1052       O  0.35690335  0.17510715  0.47536212    -0.69900
O1053       O  0.36048334  0.12870923  0.47336887    -0.69500
O1054       O  0.30099486  0.12133990  0.53282547    -0.60700
O1055       O  0.30176922  0.12203795  0.47185802    -0.73200
O1056       O  0.35941223  0.12699743  0.53241051    -0.72000
Cu1057     Cu  0.32598584  0.17279571  0.50374701     1.04600
Cu1058     Cu  0.33058811  0.12320346  0.50251211     1.04300
C1059       C  0.36625364  0.15049565  0.54332749     0.94300
C1060       C  0.29189569  0.14447074  0.46118514     0.93400
C1061       C  0.29076090  0.14362643  0.54371935     0.85600
C1062       C  0.36858352  0.15308405  0.46553273     0.91800
O1063       O  0.86481324  0.31077839  0.54170589    -0.71900
O1064       O  0.85564874  0.36808359  0.48093601    -0.72900
O1065       O  0.85987958  0.36927905  0.54022725    -0.61500
O1066       O  0.86059710  0.30935630  0.48145450    -0.69900
O1067       O  0.81413332  0.30565538  0.48434805    -0.69500
O1068       O  0.81348823  0.36589686  0.54315881    -0.60700
O1069       O  0.80927533  0.36474039  0.48365729    -0.73200
O1070       O  0.81837214  0.30718021  0.54490390    -0.72000
Cu1071     Cu  0.86182954  0.33934977  0.51092484     1.04600
Cu1072     Cu  0.81218115  0.33555013  0.51412614     1.04300
C1073       C  0.84292053  0.30123123  0.55389315     0.94300
C1074       C  0.83126041  0.37552383  0.47259588     0.93400
C1075       C  0.83660566  0.37693502  0.55115460     0.85600
C1076       C  0.83742481  0.29906544  0.47280213     0.91800
C1077       C  0.14075677  0.32401534  0.28388861     0.87500
C1078       C  0.14549092  0.35370270  0.29566022    -0.52700
C1079       C  0.14318604  0.37442364  0.27598467     0.10400
C1080       C  0.13627278  0.36361450  0.24638000     0.21400
C1081       C  0.11185171  0.32518773  0.26996085    -0.53400
C1082       C  0.10928224  0.34597933  0.25055995     0.10500
C1083       C  0.16194164  0.32127051  0.25965161    -0.53000
C1084       C  0.15984684  0.34215297  0.24006632     0.11100
H1085       H  0.15007374  0.35795702  0.31757465     0.15600
H1086       H  0.13427993  0.38053618  0.23048095     0.01400
H1087       H  0.09461747  0.31126621  0.27554148     0.15900
H1088       H  0.17776231  0.30488814  0.25859950     0.15700
C1089       C  0.22950890  0.35368384  0.12524532     0.87500
C1090       C  0.20661409  0.34876143  0.14745355    -0.52700
C1091       C  0.21605866  0.35051661  0.17445055     0.10400
C1092       C  0.24793961  0.35692384  0.17668680     0.21400
C1093       C  0.24218639  0.38235371  0.13257323    -0.53400
C1094       C  0.25170224  0.38443583  0.15949297     0.10500
C1095       C  0.25243572  0.33227426  0.13188861    -0.53000
C1096       C  0.26220382  0.33356135  0.15871758     0.11100
H1097       H  0.18477976  0.34459910  0.14226741     0.15600
H1098       H  0.25578151  0.35830674  0.19857513     0.01400
H1099       H  0.24312864  0.39971447  0.11782676     0.15900
H1100       H  0.26016492  0.31713625  0.11665018     0.15700
O1101       O  0.29814991  0.47133271  0.15336110    -0.71900
O1102       O  0.35670160  0.53252318  0.15677961    -0.72900
O1103       O  0.35680798  0.47307543  0.15645217    -0.61500
O1104       O  0.29767295  0.53241885  0.15310563    -0.69900
O1105       O  0.29525026  0.53333115  0.19958427    -0.69500
O1106       O  0.35503933  0.47225684  0.20289733    -0.60700
O1107       O  0.35513805  0.53243946  0.20322305    -0.73200
O1108       O  0.29554243  0.47103978  0.19982946    -0.72000
Cu1109     Cu  0.32720311  0.50236807  0.15344672     1.04600
Cu1110     Cu  0.32487389  0.50230402  0.20309615     1.04300
C1111       C  0.28911516  0.46025624  0.17606034     0.94300
C1112       C  0.36545893  0.54199423  0.18032624     0.93400
C1113       C  0.36533500  0.46315954  0.17978672     0.85600
C1114       C  0.28834257  0.54343983  0.17565424     0.91800
O1115       O  0.85102828  0.46489960  0.31466745    -0.71900
O1116       O  0.84522523  0.52644363  0.37186360    -0.72900
O1117       O  0.84767082  0.46726419  0.37352843    -0.61500
O1118       O  0.84835569  0.52564355  0.31319891    -0.69900
O1119       O  0.80178716  0.52422539  0.31116587    -0.69500
O1120       O  0.80119759  0.46490132  0.37222224    -0.60700
O1121       O  0.79871998  0.52483294  0.37064065    -0.73200
O1122       O  0.80452064  0.46246009  0.31257888    -0.72000
Cu1123     Cu  0.84956856  0.49609940  0.34318935     1.04600
Cu1124     Cu  0.79984779  0.49398799  0.34130822     1.04300
C1125       C  0.82875134  0.45295100  0.30575304     0.94300
C1126       C  0.82141905  0.53541327  0.38040899     0.93400
C1127       C  0.82461337  0.45702144  0.38271257     0.85600
C1128       C  0.82518620  0.53539546  0.30399591     0.91800
O1129       O  0.29329162  0.54473842  0.88639496    -0.71900
O1130       O  0.35302735  0.48516037  0.88465989    -0.72900
O1131       O  0.35281255  0.54436749  0.88693160    -0.61500
O1132       O  0.29399832  0.48406321  0.88403670    -0.69900
O1133       O  0.29447327  0.48565166  0.83742997    -0.69500
O1134       O  0.35286727  0.54578441  0.84042495    -0.60700
O1135       O  0.35328488  0.48674620  0.83816323    -0.73200
O1136       O  0.29370132  0.54600268  0.83980280    -0.72000
Cu1137     Cu  0.32302902  0.51459582  0.88717288     1.04600
Cu1138     Cu  0.32338868  0.51619608  0.83737049     1.04300
C1139       C  0.28494859  0.55542131  0.86330808     0.94300
C1140       C  0.36260747  0.47656637  0.86110735     0.93400
C1141       C  0.36264117  0.55408202  0.86394774     0.85600
C1142       C  0.28643680  0.47426407  0.86027165     0.91800
O1143       O  0.17533975  0.46234756  0.31535980    -0.71900
O1144       O  0.18192617  0.52212280  0.37557827    -0.72900
O1145       O  0.18146273  0.46149732  0.37425735    -0.61500
O1146       O  0.17568587  0.52330517  0.31665259    -0.69900
O1147       O  0.12920853  0.52303226  0.32120514    -0.69500
O1148       O  0.13506120  0.46229422  0.37807812    -0.60700
O1149       O  0.13554242  0.52190172  0.37946676    -0.73200
O1150       O  0.12888694  0.46284210  0.31986287    -0.72000
Cu1151     Cu  0.18030452  0.49231224  0.34514575     1.04600
Cu1152     Cu  0.13065691  0.49252086  0.34972226     1.04300
C1153       C  0.15115765  0.45236502  0.30927119     0.94300
C1154       C  0.15943480  0.53184301  0.38665938     0.93400
C1155       C  0.15875768  0.45186369  0.38495060     0.85600
C1156       C  0.15157803  0.53360822  0.31099853     0.91800
C1157       C  0.38062679  0.15253578  0.27660211     0.87500
C1158       C  0.35715309  0.15505611  0.29872804    -0.52700
C1159       C  0.33078062  0.15078502  0.28810860     0.10400
C1160       C  0.33033679  0.14505597  0.25622079     0.21400
C1161       C  0.37623880  0.12347481  0.26347816    -0.53400
C1162       C  0.34983367  0.11933668  0.25317847     0.10500
C1163       C  0.37296247  0.17350958  0.25366397    -0.53000
C1164       C  0.34673840  0.16993225  0.24281313     0.11100
H1165       H  0.36113857  0.15845608  0.32090804     0.15600
H1166       H  0.30894627  0.14173339  0.24754270     0.01400
H1167       H  0.39221848  0.10719165  0.26343089     0.15900
H1168       H  0.38716932  0.18994567  0.24656428     0.15700
C1169       C  0.37604735  0.26538409  0.16579547     0.87500
C1170       C  0.37023626  0.24168208  0.18658821    -0.52700
C1171       C  0.34366511  0.23100320  0.18523477     0.10400
C1172       C  0.32497584  0.24555739  0.16275830     0.21400
C1173       C  0.36870032  0.25324265  0.13697608    -0.53400
C1174       C  0.34203553  0.24292985  0.13509522     0.10500
C1175       C  0.35331009  0.28749910  0.17159813    -0.53000
C1176       C  0.32646197  0.27741659  0.16990041     0.11100
H1177       H  0.38600383  0.23372236  0.20100554     0.15600
H1178       H  0.30328924  0.23705659  0.16133868     0.01400
H1179       H  0.38336098  0.25289578  0.11947010     0.15900
H1180       H  0.35803159  0.30949249  0.17547885     0.15700
O1181       O  0.45131220  0.31867556  0.88093041    -0.71900
O1182       O  0.51445788  0.37517494  0.87873981    -0.72900
O1183       O  0.45495427  0.37797748  0.88088042    -0.61500
O1184       O  0.51201026  0.31604487  0.87875984    -0.69900
O1185       O  0.51069868  0.31614386  0.83218201    -0.69500
O1186       O  0.45331009  0.37795602  0.83440516    -0.60700
O1187       O  0.51307994  0.37560930  0.83228943    -0.73200
O1188       O  0.44967959  0.31851430  0.83440475    -0.72000
Cu1189     Cu  0.48318942  0.34679794  0.88140652     1.04600
Cu1190     Cu  0.48158709  0.34688054  0.83167958     1.04300
C1191       C  0.43986938  0.31052799  0.85809310     0.94300
C1192       C  0.52380023  0.38437324  0.85531064     0.93400
C1193       C  0.44525394  0.38791834  0.85798400     0.85600
C1194       C  0.52137390  0.30747312  0.85515110     0.91800
O1195       O  0.47041766  0.13771810  0.31997370    -0.71900
O1196       O  0.53054179  0.13981381  0.37854219    -0.72900
O1197       O  0.47137757  0.13826179  0.37827246    -0.61500
O1198       O  0.53076873  0.13909271  0.31924747    -0.69900
O1199       O  0.52980870  0.18571664  0.31864108    -0.69500
O1200       O  0.47040268  0.18482247  0.37926829    -0.60700
O1201       O  0.53027504  0.18636004  0.37847986    -0.73200
O1202       O  0.46868403  0.18433350  0.32027082    -0.72000
Cu1203     Cu  0.50095919  0.13720389  0.34886077     1.04600
Cu1204     Cu  0.49988776  0.18703374  0.34895315     1.04300
C1205       C  0.45878585  0.16061249  0.31246229     0.94300
C1206       C  0.53949968  0.16316247  0.38830116     0.93400
C1207       C  0.46107507  0.16110447  0.38774897     0.85600
C1208       C  0.54018440  0.16244214  0.31015626     0.91800
O1209       O  0.46462941  0.30966935  0.19237367    -0.71900
O1210       O  0.52348966  0.37034561  0.19601034    -0.72900
O1211       O  0.46363341  0.36864799  0.19760328    -0.61500
O1212       O  0.52592396  0.31156004  0.19069964    -0.69900
O1213       O  0.52457906  0.31541237  0.14429764    -0.69500
O1214       O  0.46251234  0.37199261  0.15124379    -0.60700
O1215       O  0.52199258  0.37397985  0.14967318    -0.73200
O1216       O  0.46354695  0.31334391  0.14594107    -0.72000
Cu1217     Cu  0.49446042  0.33968948  0.19578612     1.04600
Cu1218     Cu  0.49311209  0.34362442  0.14619226     1.04300
C1219       C  0.45368270  0.30330066  0.16874983     0.94300
C1220       C  0.53211815  0.38166560  0.17328093     0.93400
C1221       C  0.45322687  0.37932488  0.17533485     0.85600
C1222       C  0.53613785  0.30596550  0.16651467     0.91800
O1223       O  0.47237478  0.83051823  0.31623594    -0.71900
O1224       O  0.53149213  0.83530004  0.37570583    -0.72900
O1225       O  0.47231266  0.82961676  0.37500375    -0.61500
O1226       O  0.53315340  0.83644526  0.31653141    -0.69900
O1227       O  0.52897927  0.88287786  0.31757614    -0.69500
O1228       O  0.46821684  0.87599125  0.37554815    -0.60700
O1229       O  0.52743050  0.88166163  0.37683896    -0.73200
O1230       O  0.46829755  0.87699308  0.31699467    -0.72000
Cu1231     Cu  0.50258948  0.83137303  0.34560717     1.04600
Cu1232     Cu  0.49816892  0.88100871  0.34653955     1.04300
C1233       C  0.45965870  0.85290818  0.30892567     0.94300
C1234       C  0.53842308  0.85904161  0.38611250     0.93400
C1235       C  0.46045968  0.85183457  0.38428249     0.85600
C1236       C  0.54148442  0.86079471  0.30892967     0.91800
C1237       C  0.83278693  0.71875565  0.33885345     0.87500
C1238       C  0.81337537  0.74431683  0.33554529    -0.52700
C1239       C  0.81758082  0.76456965  0.35550762     0.10400
C1240       C  0.84099522  0.75755493  0.37664018     0.21400
C1241       C  0.86269586  0.73081605  0.33877345    -0.53400
C1242       C  0.86711920  0.75104608  0.35851389     0.10500
C1243       C  0.82790581  0.70860334  0.36899678    -0.53000
C1244       C  0.83203497  0.72899209  0.38874738     0.11100
H1245       H  0.79717189  0.74578891  0.31960039     0.15600
H1246       H  0.84443577  0.77402664  0.39280962     0.01400
H1247       H  0.87897117  0.72395851  0.32429523     0.15900
H1248       H  0.82161195  0.68730924  0.37423837     0.15700
C1249       C  0.42827900  0.28676200  0.16798922    -0.12300
C1250       C  0.40506108  0.27635857  0.16724110    -0.13800
C1251       C  0.33690495  0.18882868  0.22079555    -0.12300
C1252       C  0.33590271  0.20750864  0.20338015    -0.13800
C1253       C  0.43269505  0.15932870  0.29721242    -0.12300
C1254       C  0.40931470  0.15670897  0.28760008    -0.13800
C1255       C  0.39287899  0.44281548  0.83460006    -0.12300
C1256       C  0.38436723  0.45449464  0.86031912     0.09800
C1257       C  0.39645903  0.44451533  0.88524204    -0.12300
C1258       C  0.41638287  0.42301806  0.88447841    -0.12300
C1259       C  0.42458501  0.41104857  0.85877937     0.09800
C1260       C  0.41276059  0.42130543  0.83383872    -0.12300
H1261       H  0.38396055  0.45005602  0.81504229     0.13800
H1262       H  0.39044058  0.45319334  0.90535580     0.13800
H1263       H  0.42523238  0.41569616  0.90403372     0.13800
H1264       H  0.41868440  0.41258359  0.81371897     0.13800
C1265       C  0.39688826  0.43064784  0.15354443    -0.12300
C1266       C  0.38728175  0.44111598  0.17941254     0.09800
C1267       C  0.39909171  0.43055603  0.20426535    -0.12300
C1268       C  0.42043521  0.41028457  0.20312635    -0.12300
C1269       C  0.43029264  0.40026074  0.17712394     0.09800
C1270       C  0.41807930  0.41054243  0.15241463    -0.12300
H1271       H  0.38815530  0.43810997  0.13398313     0.13800
H1272       H  0.39206538  0.43812371  0.22449966     0.13800
H1273       H  0.42935584  0.40266867  0.22253849     0.13800
H1274       H  0.42496677  0.40316623  0.13206108     0.13800
C1275       C  0.28379534  0.31383043  0.16794634    -0.12300
C1276       C  0.30238139  0.29646618  0.17063203    -0.13800
C1277       C  0.27349501  0.43396953  0.17449749    -0.12300
C1278       C  0.26325070  0.41094274  0.16992302    -0.13800
C1279       C  0.17992495  0.34508291  0.21710423    -0.12300
C1280       C  0.19699531  0.34751501  0.19825096    -0.13800
C1281       C  0.14897209  0.42725550  0.29253257    -0.12300
C1282       C  0.14646646  0.40381494  0.28306986    -0.13800
C1283       C  0.80258327  0.40614062  0.44033574    -0.12300
C1284       C  0.82886035  0.39653486  0.44981056     0.09800
C1285       C  0.85331160  0.40696375  0.43701855    -0.12300
C1286       C  0.85168626  0.42642167  0.41529568    -0.12300
C1287       C  0.82555266  0.43606979  0.40567999     0.09800
C1288       C  0.80094362  0.42575276  0.41843155    -0.12300
H1289       H  0.78336081  0.39851609  0.44979235     0.13800
H1290       H  0.87387628  0.40002042  0.44369959     0.13800
H1291       H  0.87105211  0.43385993  0.40600033     0.13800
H1292       H  0.78049860  0.43286850  0.41156746     0.13800
C1293       C  0.40011785  0.13236387  0.42937215    -0.12300
C1294       C  0.39187923  0.15570987  0.44528598     0.09800
C1295       C  0.40655947  0.18118503  0.44219923    -0.12300
C1296       C  0.42925833  0.18312305  0.42359692    -0.12300
C1297       C  0.43758573  0.15959973  0.40788912     0.09800
C1298       C  0.42269306  0.13428776  0.41087672    -0.12300
H1299       H  0.38906720  0.11256559  0.43114820     0.13800
H1300       H  0.40074063  0.19945456  0.45438504     0.13800
H1301       H  0.44036463  0.20287693  0.42165717     0.13800
H1302       H  0.42832817  0.11592971  0.39873449     0.13800
C1303       C  0.18410795  0.39442585  0.43427355    -0.12300
C1304       C  0.15855092  0.38572500  0.44634931     0.09800
C1305       C  0.13343320  0.39781756  0.43685765    -0.12300
C1306       C  0.13378315  0.41887458  0.41672343    -0.12300
C1307       C  0.15924952  0.42849105  0.40536729     0.09800
C1308       C  0.18445447  0.41566902  0.41385948    -0.12300
H1309       H  0.20377119  0.38524677  0.44095198     0.13800
H1310       H  0.11335064  0.39150199  0.44543955     0.13800
H1311       H  0.11393804  0.42794151  0.41042927     0.13800
H1312       H  0.20435721  0.42234358  0.40513090     0.13800
C1313       C  0.39989357  0.87231618  0.43129437    -0.12300
C1314       C  0.39285405  0.84667518  0.44405088     0.09800
C1315       C  0.40811469  0.82246752  0.43681048    -0.12300
C1316       C  0.43016053  0.82401247  0.41737434    -0.12300
C1317       C  0.43732686  0.84979852  0.40490857     0.09800
C1318       C  0.42185524  0.87386067  0.41199526    -0.12300
H1319       H  0.38851066  0.89132245  0.43629623     0.13800
H1320       H  0.40323081  0.80243468  0.44634896     0.13800
H1321       H  0.44167526  0.80510945  0.41227077     0.13800
H1322       H  0.42665310  0.89397905  0.40259015     0.13800
C1323       C  0.28547538  0.14494473  0.32062011    -0.12300
C1324       C  0.30613595  0.14784349  0.30595097    -0.13800
C1325       C  0.26317867  0.14075029  0.41351091    -0.12300
C1326       C  0.27535115  0.14250525  0.43579541    -0.13800
C1327       C  0.17354672  0.19694661  0.35234203    -0.12300
C1328       C  0.19088402  0.17857157  0.34986019    -0.13800
C1329       C  0.14214912  0.28465008  0.32426646    -0.12300
C1330       C  0.14253945  0.30177151  0.30546028    -0.13800
C1331       C  0.14793974  0.27273033  0.44966564    -0.12300
C1332       C  0.14519370  0.26299176  0.42649530    -0.13800
C1333       C  0.26557652  0.84071700  0.41638481    -0.12300
C1334       C  0.27646288  0.84025008  0.43922726    -0.13800
C1335       C  0.21064438  0.05471559  0.35118272    -0.12300
C1336       C  0.22035826  0.07831297  0.35249408    -0.13800
C1337       C  0.21653014  0.89968901  0.34663542    -0.12300
C1338       C  0.20471079  0.92207757  0.34400417    -0.13800
C1339       C  0.83754236  0.28162145  0.44827222    -0.12300
C1340       C  0.83891830  0.27015646  0.42575139    -0.13800
C1341       C  0.06414755  0.08752041  0.33145967    -0.12300
C1342       C  0.05243265  0.09566887  0.35727510     0.09800
C1343       C  0.06247568  0.08322332  0.38203078    -0.12300
C1344       C  0.08348990  0.06267727  0.38083247    -0.12300
C1345       C  0.09483228  0.05426831  0.35486871     0.09800
C1346       C  0.08506806  0.06711297  0.33027025    -0.12300
H1347       H  0.05707967  0.09683664  0.31201881     0.13800
H1348       H  0.05393305  0.08913336  0.40224160     0.13800
H1349       H  0.09059987  0.05317447  0.40016964     0.13800
H1350       H  0.09341901  0.06125220  0.30997417     0.13800
C1351       C  0.05673463  0.20972683  0.35598824    -0.12300
C1352       C  0.07958389  0.22057395  0.35850072    -0.13800
C1353       C  0.92398469  0.20979783  0.35677946    -0.12300
C1354       C  0.90140967  0.22120520  0.35918799    -0.13800
C1355       C  0.91645671  0.77730021  0.36115459    -0.12300
C1356       C  0.89406301  0.76514024  0.36114987    -0.13800
C1357       C  0.05195706  0.90564772  0.32470798    -0.12300
C1358       C  0.04307633  0.89407390  0.35039497     0.09800
C1359       C  0.05656432  0.90265046  0.37515003    -0.12300
C1360       C  0.07854282  0.92203992  0.37434441    -0.12300
C1361       C  0.08768238  0.93348661  0.34875382     0.09800
C1362       C  0.07402522  0.92522212  0.32390351    -0.12300
H1363       H  0.04196087  0.89951479  0.30526986     0.13800
H1364       H  0.05037247  0.89412388  0.39527413     0.13800
H1365       H  0.08849606  0.92791223  0.39387392     0.13800
H1366       H  0.08045895  0.93375552  0.30385779     0.13800
C1367       C  0.89584250  0.06535609  0.38443616    -0.12300
C1368       C  0.88436146  0.05563827  0.35904805     0.09800
C1369       C  0.89537068  0.06574335  0.33364626    -0.12300
C1370       C  0.91718639  0.08535180  0.33359133    -0.12300
C1371       C  0.92848352  0.09531901  0.35893512     0.09800
C1372       C  0.91767393  0.08502574  0.38438126    -0.12300
H1373       H  0.88787055  0.05791224  0.40435804     0.13800
H1374       H  0.88706588  0.05861321  0.31376147     0.13800
H1375       H  0.92504383  0.09284383  0.31364591     0.13800
H1376       H  0.92593842  0.09227254  0.40424687     0.13800
C1377       C  0.88827154  0.92467416  0.33031564    -0.12300
C1378       C  0.87732122  0.93420821  0.35603472     0.09800
C1379       C  0.88694432  0.92206206  0.38103739    -0.12300
C1380       C  0.90754517  0.90131103  0.38043826    -0.12300
C1381       C  0.91897978  0.89217883  0.35482654     0.09800
C1382       C  0.90891985  0.90381631  0.32971304    -0.12300
H1383       H  0.88118302  0.93356969  0.31068789     0.13800
H1384       H  0.87879314  0.92877802  0.40114686     0.13800
H1385       H  0.91465458  0.89258305  0.40013165     0.13800
H1386       H  0.91725848  0.89712419  0.30966824     0.13800
C1387       C  0.27548315  0.14187024  0.56983073    -0.12300
C1388       C  0.26621150  0.14083082  0.59349228    -0.13800
C1389       C  0.08725188  0.07359100  0.70943515    -0.12300
C1390       C  0.09434666  0.06085585  0.68372517     0.09800
C1391       C  0.08043242  0.06957669  0.65929935    -0.12300
C1392       C  0.05992830  0.09038691  0.66042440    -0.12300
C1393       C  0.05271702  0.10318761  0.68599756     0.09800
C1394       C  0.06662653  0.09462296  0.71055999    -0.12300
H1395       H  0.09762761  0.06734437  0.72862186     0.13800
H1396       H  0.08523147  0.06019037  0.63918036     0.13800
H1397       H  0.04966364  0.09638288  0.64109508     0.13800
H1398       H  0.06158713  0.10412501  0.73056783     0.13800
C1399       C  0.20993518  0.06111255  0.67281509    -0.12300
C1400       C  0.22146070  0.08317164  0.66763564    -0.13800
C1401       C  0.20438039  0.92877273  0.66912194    -0.12300
C1402       C  0.21576887  0.90647312  0.66425720    -0.13800
C1403       C  0.26835270  0.84856047  0.59512800    -0.12300
C1404       C  0.27853700  0.84685047  0.57190048    -0.13800
C1405       C  0.89813504  0.07249849  0.66945609    -0.12300
C1406       C  0.88570837  0.06425949  0.69487088     0.09800
C1407       C  0.89563465  0.07626077  0.72001149    -0.12300
C1408       C  0.91743466  0.09629599  0.71947069    -0.12300
C1409       C  0.92957894  0.10452802  0.69378521     0.09800
C1410       C  0.91965136  0.09222692  0.66892565    -0.12300
H1411       H  0.89125743  0.06369487  0.64969236     0.13800
H1412       H  0.88653853  0.07028049  0.73995258     0.13800
H1413       H  0.92461968  0.10540323  0.73899098     0.13800
H1414       H  0.92844892  0.09787860  0.64876076     0.13800
C1415       C  0.05117366  0.91587462  0.65424217    -0.12300
C1416       C  0.04480735  0.89993823  0.67817189     0.09800
C1417       C  0.06011570  0.90464930  0.70295376    -0.12300
C1418       C  0.08172118  0.92462692  0.70355764    -0.12300
C1419       C  0.08838195  0.94010533  0.67936944     0.09800
C1420       C  0.07268772  0.93569220  0.65482911    -0.12300
H1421       H  0.03967188  0.91291841  0.63489490     0.13800
H1422       H  0.05566874  0.89267901  0.72171522     0.13800
H1423       H  0.09346127  0.92761793  0.72275541     0.13800
H1424       H  0.07709565  0.94746647  0.63592750     0.13800
C1425       C  0.91695914  0.91096140  0.71299266    -0.12300
C1426       C  0.92244913  0.89831796  0.68684031     0.09800
C1427       C  0.90698010  0.90687280  0.66336321    -0.12300
C1428       C  0.88706840  0.92798266  0.66559115    -0.12300
C1429       C  0.88192796  0.94129209  0.69136417     0.09800
C1430       C  0.89674252  0.93236380  0.71525808    -0.12300
H1431       H  0.92859952  0.90472841  0.73144112     0.13800
H1432       H  0.91034601  0.89736721  0.64301258     0.13800
H1433       H  0.87573957  0.93394972  0.64686017     0.13800
H1434       H  0.89310844  0.94220993  0.73539471     0.13800
C1435       C  0.90412290  0.23115595  0.67792398    -0.12300
C1436       C  0.92617839  0.21963994  0.68298113    -0.13800
C1437       C  0.84780072  0.27600133  0.60291366    -0.12300
C1438       C  0.84588305  0.28570242  0.57958005    -0.13800
C1439       C  0.18178237  0.19593460  0.66660661    -0.12300
C1440       C  0.19964035  0.17799996  0.66415646    -0.13800
C1441       C  0.05808160  0.21780545  0.67388639    -0.12300
C1442       C  0.08169509  0.22619511  0.66923616    -0.13800
C1443       C  0.14477081  0.27969006  0.58108877    -0.12300
C1444       C  0.14261300  0.26744171  0.60324002    -0.13800
C1445       C  0.26200040  0.42473097  0.85887350    -0.12300
C1446       C  0.27107501  0.44838000  0.85917796    -0.13800
C1447       C  0.21916089  0.35176448  0.09609589    -0.12300
C1448       C  0.20902274  0.35017871  0.07286030    -0.13800
C1449       C  0.21978996  0.35048060  0.91705365    -0.12300
C1450       C  0.20938160  0.34635292  0.93982903    -0.13800
C1451       C  0.83988971  0.28466870  0.32252562    -0.12300
C1452       C  0.84006339  0.30143721  0.30341475    -0.13800
C1453       C  0.83487486  0.40349847  0.28065444    -0.12300
C1454       C  0.83129132  0.42703174  0.28989779    -0.13800
C1455       C  0.08817871  0.32217416  0.08258031    -0.12300
C1456       C  0.09505365  0.34685921  0.06795274     0.09800
C1457       C  0.08151187  0.37202036  0.07527747    -0.12300
C1458       C  0.06143935  0.37247754  0.09666585    -0.12300
C1459       C  0.05445489  0.34779061  0.11122344     0.09800
C1460       C  0.06807107  0.32263107  0.10400316    -0.12300
H1461       H  0.09840643  0.30251544  0.07756878     0.13800
H1462       H  0.08631805  0.39137546  0.06441377     0.13800
H1463       H  0.05125626  0.39216876  0.10164332     0.13800
H1464       H  0.06323138  0.30330929  0.11490710     0.13800
C1465       C  0.08262544  0.35133934  0.23696235    -0.12300
C1466       C  0.05981783  0.35315150  0.22593514    -0.13800
C1467       C  0.92645545  0.35186055  0.22616413    -0.12300
C1468       C  0.90379352  0.35075374  0.23772997    -0.13800
C1469       C  0.06592982  0.36722084  0.91027971    -0.12300
C1470       C  0.05747067  0.34148457  0.89857202     0.09800
C1471       C  0.06894437  0.31649931  0.90923839    -0.12300
C1472       C  0.08828530  0.31726757  0.93130027    -0.12300
C1473       C  0.09652677  0.34302225  0.94316333     0.09800
C1474       C  0.08521982  0.36798712  0.93230873    -0.12300
H1475       H  0.05741106  0.38683634  0.90264695     0.13800
H1476       H  0.06284341  0.29634800  0.90070328     0.13800
H1477       H  0.09675245  0.29768286  0.93905833     0.13800
H1478       H  0.09117402  0.38816122  0.94088684     0.13800
C1479       C  0.90319132  0.31944060  0.07893352    -0.12300
C1480       C  0.89425613  0.34452263  0.06629649     0.09800
C1481       C  0.90569150  0.37011658  0.07552464    -0.12300
C1482       C  0.92533830  0.37073469  0.09710681    -0.12300
C1483       C  0.93410612  0.34578395  0.11000126     0.09800
C1484       C  0.92298689  0.32006000  0.10061574    -0.12300
H1485       H  0.89474685  0.29941108  0.07225356     0.13800
H1486       H  0.89935166  0.38980325  0.06620510     0.13800
H1487       H  0.93362801  0.39086136  0.10368664     0.13800
H1488       H  0.92944486  0.30048240  0.11008491     0.13800
C1489       C  0.90520443  0.36824771  0.93260354    -0.12300
C1490       C  0.89465311  0.34338545  0.94443199     0.09800
C1491       C  0.90563683  0.31748985  0.93543439    -0.12300
C1492       C  0.92644586  0.31648449  0.91473009    -0.12300
C1493       C  0.93667982  0.34134935  0.90262861     0.09800
C1494       C  0.92596450  0.36724324  0.91191814    -0.12300
H1495       H  0.89727579  0.38851393  0.93914533     0.13800
H1496       H  0.89809163  0.29798390  0.94428860     0.13800
H1497       H  0.93434802  0.29623989  0.90808351     0.13800
H1498       H  0.93342056  0.38678371  0.90304788     0.13800
C1499       C  0.26043273  0.59112413  0.16803100    -0.12300
C1500       C  0.27157816  0.56881440  0.17349041    -0.13800
C1501       C  0.07519335  0.64649626  0.07150004    -0.12300
C1502       C  0.09162849  0.67069887  0.06804791     0.09800
C1503       C  0.08715212  0.69390561  0.08574242    -0.12300
C1504       C  0.06705904  0.69246674  0.10715457    -0.12300
C1505       C  0.05134587  0.66779712  0.11105847     0.09800
C1506       C  0.05530074  0.64505603  0.09276599    -0.12300
H1507       H  0.07786185  0.62846977  0.05791598     0.13800
H1508       H  0.09954618  0.71282201  0.08344348     0.13800
H1509       H  0.06428728  0.71029492  0.12097864     0.13800
H1510       H  0.04312743  0.62597672  0.09497395     0.13800
C1511       C  0.20648527  0.65833789  0.07322042    -0.12300
C1512       C  0.21688957  0.65383610  0.09589495    -0.13800
C1513       C  0.20478267  0.66870954  0.94060571    -0.12300
C1514       C  0.21207896  0.66707257  0.91641837    -0.13800
C1515       C  0.25393886  0.60128764  0.86201261    -0.12300
C1516       C  0.26681460  0.57952895  0.86358274    -0.13800
C1517       C  0.92329117  0.63682158  0.10055509    -0.12300
C1518       C  0.93133408  0.66163462  0.11434015     0.09800
C1519       C  0.91823057  0.68699050  0.10680108    -0.12300
C1520       C  0.89764076  0.68744697  0.08578317    -0.12300
C1521       C  0.88980849  0.66257093  0.07191127     0.09800
C1522       C  0.90283836  0.63727832  0.07964861    -0.12300
H1523       H  0.93291597  0.61692823  0.10579038     0.13800
H1524       H  0.92391279  0.70644479  0.11706440     0.13800
H1525       H  0.88789565  0.70724017  0.08040417     0.13800
H1526       H  0.89731036  0.61771564  0.06949717     0.13800
C1527       C  0.06587469  0.65344330  0.91045589    -0.12300
C1528       C  0.05257973  0.67859474  0.90301095     0.09800
C1529       C  0.06039875  0.70359415  0.91675404    -0.12300
C1530       C  0.08082906  0.70315740  0.93798404    -0.12300
C1531       C  0.09360962  0.67770499  0.94568117     0.09800
C1532       C  0.08605863  0.65300971  0.93143461    -0.12300
H1533       H  0.06060160  0.63388545  0.90016597     0.13800
H1534       H  0.05047394  0.72330316  0.91141795     0.13800
H1535       H  0.08630605  0.72250923  0.94855533     0.13800
H1536       H  0.09568713  0.63308751  0.93653058     0.13800
C1537       C  0.92140253  0.64846728  0.91639539    -0.12300
C1538       C  0.92972262  0.67473755  0.90580776     0.09800
C1539       C  0.91681227  0.69906194  0.91650345    -0.12300
C1540       C  0.89626050  0.69698896  0.93762854    -0.12300
C1541       C  0.88832497  0.67055543  0.94831823     0.09800
C1542       C  0.90105340  0.64641818  0.93727217    -0.12300
H1543       H  0.93068204  0.62925617  0.90862146     0.13800
H1544       H  0.92262149  0.71958715  0.90865023     0.13800
H1545       H  0.88668739  0.71597925  0.94560228     0.13800
H1546       H  0.89541703  0.62574130  0.94484497     0.13800
C1547       C  0.83116103  0.67856571  0.29957269    -0.12300
C1548       C  0.82909451  0.69651424  0.31749570    -0.13800
C1549       C  0.90474457  0.64407583  0.23591355    -0.12300
C1550       C  0.92831742  0.64724397  0.22710368    -0.13800
C1551       C  0.83021245  0.58335399  0.27636952    -0.12300
C1552       C  0.82584092  0.56074084  0.28726564    -0.13800
C1553       C  0.19634655  0.65461217  0.19800912    -0.12300
C1554       C  0.17975050  0.65254437  0.21718214    -0.13800
C1555       C  0.08438799  0.65070694  0.23775545    -0.12300
C1556       C  0.06178134  0.65442298  0.22662230    -0.13800
C1557       C  0.14946991  0.55886751  0.29485069    -0.12300
C1558       C  0.14661219  0.58179470  0.28457868    -0.13800
C1559       C  0.29989758  0.30226809  0.85873679    -0.12300
C1560       C  0.28466338  0.32239072  0.85582006    -0.13800
C1561       C  0.41472598  0.29332231  0.85934760    -0.12300
C1562       C  0.39272135  0.28079420  0.86265627    -0.13800
C1563       C  0.33200447  0.23069437  0.10893235    -0.12300
C1564       C  0.32797840  0.21984396  0.08619637    -0.13800
C1565       C  0.32673307  0.22152547  0.95235459    -0.12300
C1566       C  0.32887202  0.23205191  0.92934330    -0.13800
C1567       C  0.35515310  0.07773713  0.11162522    -0.12300
C1568       C  0.33034163  0.06501962  0.12125183     0.09800
C1569       C  0.30447891  0.07337713  0.10981470    -0.12300
C1570       C  0.30350747  0.09382218  0.08887490    -0.12300
C1571       C  0.32837541  0.10627987  0.07901578     0.09800
C1572       C  0.35418382  0.09814896  0.09071222    -0.12300
H1573       H  0.37536182  0.07185063  0.12014081     0.13800
H1574       H  0.28500941  0.06395533  0.11683073     0.13800
H1575       H  0.28332275  0.09972543  0.08031778     0.13800
H1576       H  0.37368028  0.10752602  0.08371540     0.13800
C1577       C  0.33622087  0.06875136  0.23408985    -0.12300
C1578       C  0.34083003  0.09200588  0.24325811    -0.13800
C1579       C  0.41000507  0.85025968  0.28450153    -0.12300
C1580       C  0.43357421  0.85087593  0.29387651    -0.13800
C1581       C  0.30535189  0.84429615  0.29815082    -0.12300
C1582       C  0.28569413  0.84258164  0.31442250    -0.13800
C1583       C  0.33941693  0.91055951  0.23990142    -0.12300
C1584       C  0.33583403  0.93392302  0.23072201    -0.13800
C1585       C  0.30160843  0.07383562  0.92535353    -0.12300
C1586       C  0.32709812  0.06445224  0.91368986     0.09800
C1587       C  0.35230811  0.07650451  0.92323733    -0.12300
C1588       C  0.35207565  0.09729116  0.94401645    -0.12300
C1589       C  0.32662367  0.10658468  0.95580315     0.09800
C1590       C  0.30137485  0.09465663  0.94615426    -0.12300
H1591       H  0.28180377  0.06507657  0.91844603     0.13800
H1592       H  0.37229670  0.06990238  0.91463987     0.13800
H1593       H  0.37189643  0.10605969  0.95085597     0.13800
H1594       H  0.28140340  0.10132074  0.95474347     0.13800
C1595       C  0.36041627  0.91332762  0.08626647    -0.12300
C1596       C  0.33564798  0.90068032  0.07647898     0.09800
C1597       C  0.30970583  0.90947718  0.08757133    -0.12300
C1598       C  0.30863833  0.93043029  0.10816674    -0.12300
C1599       C  0.33349225  0.94291217  0.11802114     0.09800
C1600       C  0.35935386  0.93418139  0.10676032    -0.12300
H1601       H  0.38071804  0.90710491  0.07813926     0.13800
H1602       H  0.29026437  0.90015981  0.08040283     0.13800
H1603       H  0.28842093  0.93671694  0.11645087     0.13800
H1604       H  0.37889714  0.94336384  0.11384888     0.13800
C1605       C  0.30817081  0.90813031  0.94254800    -0.12300
C1606       C  0.33436082  0.90002214  0.95351744     0.09800
C1607       C  0.35880935  0.91245732  0.94258727    -0.12300
C1608       C  0.35714738  0.93274991  0.92150750    -0.12300
C1609       C  0.33098605  0.94122045  0.91080400     0.09800
C1610       C  0.30649980  0.92852682  0.92142633    -0.12300
H1611       H  0.28894577  0.89882707  0.95036205     0.13800
H1612       H  0.37931661  0.90662069  0.95040139     0.13800
H1613       H  0.37643937  0.94199461  0.91378985     0.13800
H1614       H  0.28604234  0.93446613  0.91356394     0.13800
C1615       C  0.58576267  0.28109915  0.16203537    -0.12300
C1616       C  0.56235743  0.29085549  0.16431662    -0.13800
C1617       C  0.64261807  0.10383814  0.07521252    -0.12300
C1618       C  0.66735340  0.11650151  0.06528763     0.09800
C1619       C  0.69338194  0.10724016  0.07562073    -0.12300
C1620       C  0.69450394  0.08575951  0.09567799    -0.12300
C1621       C  0.66960836  0.07327937  0.10561425     0.09800
C1622       C  0.64373246  0.08253499  0.09506010    -0.12300
H1623       H  0.62222299  0.11036188  0.06767555     0.13800
H1624       H  0.71277429  0.11659230  0.06829676     0.13800
H1625       H  0.71474115  0.07908156  0.10349520     0.13800
H1626       H  0.62416185  0.07342487  0.10222031     0.13800
C1627       C  0.65795458  0.22932272  0.07379204    -0.12300
C1628       C  0.65469978  0.23800488  0.09747117    -0.13800
C1629       C  0.64941078  0.22909851  0.93820013    -0.12300
C1630       C  0.64271172  0.23730101  0.91514094    -0.13800
C1631       C  0.56861812  0.27846910  0.85497995    -0.12300
C1632       C  0.54589174  0.28979093  0.85451273    -0.13800
C1633       C  0.64149946  0.91903231  0.07776017    -0.12300
C1634       C  0.66566116  0.90391912  0.07022199     0.09800
C1635       C  0.69165618  0.91194364  0.08178131    -0.12300
C1636       C  0.69327246  0.93445436  0.10077232    -0.12300
C1637       C  0.66891246  0.94927955  0.10849441     0.09800
C1638       C  0.64310227  0.94135863  0.09658717    -0.12300
H1639       H  0.62119229  0.91366409  0.06908770     0.13800
H1640       H  0.71067739  0.90081253  0.07623737     0.13800
H1641       H  0.71344965  0.94004101  0.10958664     0.13800
H1642       H  0.62393926  0.95236479  0.10188127     0.13800
C1643       C  0.63797542  0.10181475  0.93833947    -0.12300
C1644       C  0.66263386  0.11617781  0.94571908     0.09800
C1645       C  0.68829995  0.10789395  0.93366670    -0.12300
C1646       C  0.68929540  0.08541431  0.91482539    -0.12300
C1647       C  0.66463746  0.07087289  0.90773751     0.09800
C1648       C  0.63896738  0.07941575  0.91956632    -0.12300
H1649       H  0.61790229  0.10766643  0.94726650     0.13800
H1650       H  0.70763343  0.11863296  0.93891913     0.13800
H1651       H  0.70930243  0.07947886  0.90581355     0.13800
H1652       H  0.61956331  0.06874647  0.91441279     0.13800
C1653       C  0.69266514  0.93133488  0.91776589    -0.12300
C1654       C  0.66830496  0.94676716  0.91133032     0.09800
C1655       C  0.64337317  0.94065467  0.92587031    -0.12300
C1656       C  0.64241875  0.91923956  0.94569157    -0.12300
C1657       C  0.66637761  0.90317243  0.95169858     0.09800
C1658       C  0.69170260  0.90967422  0.93781744    -0.12300
H1659       H  0.71221213  0.93561595  0.90697162     0.13800
H1660       H  0.62431309  0.95231866  0.92178836     0.13800
H1661       H  0.62268115  0.91521749  0.95623788     0.13800
H1662       H  0.71058147  0.89781708  0.94214653     0.13800
C1663       C  0.66555161  0.94951399  0.22419959    -0.12300
C1664       C  0.66153051  0.92747595  0.23608835    -0.13800
C1665       C  0.58913765  0.86697035  0.28091431    -0.12300
C1666       C  0.56655669  0.86356607  0.29211644    -0.13800
C1667       C  0.65805984  0.19584948  0.21302762    -0.12300
C1668       C  0.65733924  0.21301794  0.19414402    -0.13800
C1669       C  0.65960296  0.10193860  0.23277701    -0.12300
C1670       C  0.66501989  0.08007737  0.22088962    -0.13800
C1671       C  0.58628488  0.16049639  0.27938860    -0.12300
C1672       C  0.56407041  0.16222380  0.29159397    -0.13800
C1673       C  0.58225449  0.43254559  0.88059742    -0.12300
C1674       C  0.59208856  0.44458362  0.85551699     0.09800
C1675       C  0.57923001  0.43659282  0.83014343    -0.12300
C1676       C  0.55706123  0.41709149  0.82994251    -0.12300
C1677       C  0.54724310  0.40513145  0.85511117     0.09800
C1678       C  0.56018205  0.41311793  0.88039615    -0.12300
H1679       H  0.59160953  0.43814585  0.90050924     0.13800
H1680       H  0.58617347  0.44552833  0.81044523     0.13800
H1681       H  0.54757094  0.41146019  0.81009652     0.13800
H1682       H  0.55327832  0.40431911  0.90017013     0.13800
C1683       C  0.56600180  0.59965626  0.88533250    -0.12300
C1684       C  0.55475459  0.61072873  0.86047146     0.09800
C1685       C  0.56409007  0.59977816  0.83463908    -0.12300
C1686       C  0.58415729  0.57825842  0.83374574    -0.12300
C1687       C  0.59532961  0.56716184  0.85866569     0.09800
C1688       C  0.58599154  0.57816548  0.88444232    -0.12300
H1689       H  0.55930759  0.60753662  0.90556824     0.13800
H1690       H  0.55582645  0.60775973  0.81507689     0.13800
H1691       H  0.59086294  0.57028977  0.81354608     0.13800
H1692       H  0.59416476  0.57019979  0.90404598     0.13800
C1693       C  0.42156002  0.60095059  0.88951509    -0.12300
C1694       C  0.43155877  0.61221149  0.86413323     0.09800
C1695       C  0.41869299  0.60425155  0.83888803    -0.12300
C1696       C  0.39612648  0.58561940  0.83897332    -0.12300
C1697       C  0.38594914  0.57449247  0.86429857     0.09800
C1698       C  0.39893308  0.58223576  0.88959810    -0.12300
H1699       H  0.43107838  0.60670705  0.90930738     0.13800
H1700       H  0.42585475  0.61261420  0.81903204     0.13800
H1701       H  0.38667036  0.57995014  0.81913181     0.13800
H1702       H  0.39170238  0.57379733  0.90940504     0.13800
C1703       C  0.41630003  0.59794999  0.15501960    -0.12300
C1704       C  0.43035286  0.60589824  0.17970509     0.09800
C1705       C  0.42263253  0.59280315  0.20505362    -0.12300
C1706       C  0.40147311  0.57211204  0.20551522    -0.12300
C1707       C  0.38761821  0.56413980  0.18064065     0.09800
C1708       C  0.39531190  0.57743551  0.15547915    -0.12300
H1709       H  0.42147644  0.60765281  0.13515005     0.13800
H1710       H  0.43308876  0.59835129  0.22443236     0.13800
H1711       H  0.39614210  0.56221249  0.22525063     0.13800
H1712       H  0.38504928  0.57202490  0.13595900     0.13800
C1713       C  0.58878856  0.57760023  0.20210196    -0.12300
C1714       C  0.59730698  0.56505890  0.17676495     0.09800
C1715       C  0.58416551  0.57316254  0.15171176    -0.12300
C1716       C  0.56297836  0.59322431  0.15184880    -0.12300
C1717       C  0.55432598  0.60581724  0.17703296     0.09800
C1718       C  0.56745100  0.59787281  0.20223372    -0.12300
H1719       H  0.59860760  0.57182104  0.22172442     0.13800
H1720       H  0.59015341  0.56393330  0.13184033     0.13800
H1721       H  0.55338513  0.59885131  0.13207579     0.13800
H1722       H  0.56130461  0.60732294  0.22195366     0.13800
C1723       C  0.58830977  0.43173616  0.19972154    -0.12300
C1724       C  0.59748575  0.44408255  0.17455502     0.09800
C1725       C  0.58473594  0.43598582  0.14923970    -0.12300
C1726       C  0.56339115  0.41596358  0.14899013    -0.12300
C1727       C  0.55423770  0.40347405  0.17404468     0.09800
C1728       C  0.56686330  0.41157376  0.19946595    -0.12300
H1729       H  0.59770707  0.43758171  0.21954422     0.13800
H1730       H  0.59120492  0.44513378  0.12949259     0.13800
H1731       H  0.55414824  0.41021319  0.12906749     0.13800
H1732       H  0.56029789  0.40225646  0.21910112     0.13800
C1733       C  0.58862341  0.83564402  0.44276285    -0.12300
C1734       C  0.59686883  0.86130357  0.45472013     0.09800
C1735       C  0.58592332  0.88640889  0.44377635    -0.12300
C1736       C  0.56706421  0.88579760  0.42131950    -0.12300
C1737       C  0.55888788  0.86007396  0.40936345     0.09800
C1738       C  0.56988829  0.83503882  0.42032720    -0.12300
H1739       H  0.59674395  0.81596684  0.45062589     0.13800
H1740       H  0.59192780  0.90651080  0.45251947     0.13800
H1741       H  0.55887821  0.90542455  0.41338773     0.13800
H1742       H  0.56395159  0.81488538  0.41166453     0.13800
C1743       C  0.56171589  0.88833002  0.60914679    -0.12300
C1744       C  0.54899676  0.86306669  0.61760854     0.09800
C1745       C  0.55838706  0.83768231  0.60591785    -0.12300
C1746       C  0.58001237  0.83759603  0.58607193    -0.12300
C1747       C  0.59269697  0.86289236  0.57757506     0.09800
C1748       C  0.58335423  0.88824190  0.58935516    -0.12300
H1749       H  0.55501812  0.90821162  0.61786784     0.13800
H1750       H  0.54892108  0.81790877  0.61194615     0.13800
H1751       H  0.58667958  0.81772507  0.57730336     0.13800
H1752       H  0.59274658  0.90803735  0.58330267     0.13800
C1753       C  0.41942670  0.88097104  0.59650891    -0.12300
C1754       C  0.42808625  0.85712649  0.61143527     0.09800
C1755       C  0.41769627  0.83062789  0.60359809    -0.12300
C1756       C  0.39894190  0.82805172  0.58127938    -0.12300
C1757       C  0.39022848  0.85193135  0.56642101     0.09800
C1758       C  0.40068154  0.87839712  0.57421839    -0.12300
H1759       H  0.42716556  0.90162968  0.60198168     0.13800
H1760       H  0.42397310  0.81187916  0.61473873     0.13800
H1761       H  0.39108279  0.80741743  0.57586314     0.13800
H1762       H  0.39432954  0.89717292  0.56316308     0.13800
C1763       C  0.18605542  0.59037253  0.43474614    -0.12300
C1764       C  0.16067112  0.60090431  0.44573086     0.09800
C1765       C  0.13535462  0.58836120  0.43719305    -0.12300
C1766       C  0.13525686  0.56589821  0.41840218    -0.12300
C1767       C  0.16046630  0.55521207  0.40739604     0.09800
C1768       C  0.18595071  0.56776064  0.41569957    -0.12300
H1769       H  0.20593159  0.59955638  0.44086254     0.13800
H1770       H  0.11540596  0.59580363  0.44514713     0.13800
H1771       H  0.11522388  0.55697311  0.41242099     0.13800
H1772       H  0.20573575  0.56018343  0.40745745     0.13800
C1773       C  0.12963954  0.57386516  0.59706638    -0.12300
C1774       C  0.15427140  0.56280333  0.60880455     0.09800
C1775       C  0.18040611  0.57318291  0.59961373    -0.12300
C1776       C  0.18174874  0.59402325  0.57884762    -0.12300
C1777       C  0.15696772  0.60480127  0.56699291     0.09800
C1778       C  0.13096779  0.59454089  0.57649513    -0.12300
H1779       H  0.10917025  0.56647452  0.60367205     0.13800
H1780       H  0.19976362  0.56506689  0.60827619     0.13800
H1781       H  0.20208549  0.60153474  0.57198539     0.13800
H1782       H  0.11145175  0.60238885  0.56794481     0.13800
C1783       C  0.13264754  0.41313878  0.56918838    -0.12300
C1784       C  0.15689355  0.39672149  0.56603780     0.09800
C1785       C  0.18093723  0.40336490  0.58178986    -0.12300
C1786       C  0.18016395  0.42530861  0.60137899    -0.12300
C1787       C  0.15535000  0.44081693  0.60533960     0.09800
C1788       C  0.13188722  0.43489817  0.58858297    -0.12300
H1789       H  0.11397590  0.40889841  0.55698443     0.13800
H1790       H  0.19996456  0.39113902  0.57958667     0.13800
H1791       H  0.19858977  0.42955211  0.61394322     0.13800
H1792       H  0.11262495  0.44674528  0.59080025     0.13800
C1793       C  0.41254796  0.17489627  0.60338865    -0.12300
C1794       C  0.42584110  0.14967458  0.61101486     0.09800
C1795       C  0.41983863  0.12515072  0.59582834    -0.12300
C1796       C  0.40079711  0.12569192  0.57368515    -0.12300
C1797       C  0.38719493  0.15075902  0.56619619     0.09800
C1798       C  0.39334121  0.17542742  0.58117448    -0.12300
H1799       H  0.41679406  0.19413437  0.61471319     0.13800
H1800       H  0.42989495  0.10545953  0.60099744     0.13800
H1801       H  0.39666011  0.10633817  0.56251580     0.13800
H1802       H  0.38314356  0.19502101  0.57592936     0.13800
C1803       C  0.58252655  0.17727322  0.59235769    -0.12300
C1804       C  0.59340556  0.15269085  0.58024825     0.09800
C1805       C  0.58164815  0.12664309  0.58773429    -0.12300
C1806       C  0.55926004  0.12526135  0.60667638    -0.12300
C1807       C  0.54815410  0.14989051  0.61850538     0.09800
C1808       C  0.56014071  0.17589195  0.61127967    -0.12300
H1809       H  0.59115501  0.19763360  0.58707489     0.13800
H1810       H  0.58956065  0.10732428  0.57879152     0.13800
H1811       H  0.55057818  0.10490692  0.61192283     0.13800
H1812       H  0.55220128  0.19521919  0.62017687     0.13800
C1813       C  0.56561542  0.13767625  0.42574520    -0.12300
C1814       C  0.55999379  0.16294339  0.41166252     0.09800
C1815       C  0.57334189  0.18767311  0.42079979    -0.12300
C1816       C  0.59198047  0.18702119  0.44354630    -0.12300
C1817       C  0.59752675  0.16163557  0.45754726     0.09800
C1818       C  0.58411185  0.13703654  0.44837084    -0.12300
H1819       H  0.55550773  0.11831325  0.41946426     0.13800
H1820       H  0.56943429  0.20745798  0.41037053     0.13800
H1821       H  0.60220907  0.20627361  0.44998370     0.13800
H1822       H  0.58786228  0.11717233  0.45870902     0.13800
C1823       C  0.86170016  0.42856091  0.60590840    -0.12300
C1824       C  0.83624933  0.44017330  0.61530968     0.09800
C1825       C  0.81089337  0.43049528  0.60378957    -0.12300
C1826       C  0.81100117  0.40985509  0.58299213    -0.12300
C1827       C  0.83646625  0.39854686  0.57330964     0.09800
C1828       C  0.86180827  0.40795171  0.58509914    -0.12300
H1829       H  0.88156352  0.43544568  0.61454147     0.13800
H1830       H  0.79097803  0.43904260  0.61062666     0.13800
H1831       H  0.79115773  0.40295592  0.57433912     0.13800
H1832       H  0.88173559  0.39941048  0.57826483     0.13800
C1833       C  0.82557586  0.71517196  0.44205567    -0.12300
C1834       C  0.82806208  0.72363917  0.41831646    -0.13800
C1835       C  0.80327767  0.58787727  0.57883638    -0.12300
C1836       C  0.82788030  0.59877376  0.56677119     0.09800
C1837       C  0.85411944  0.59011973  0.57704165    -0.12300
C1838       C  0.85575674  0.57114505  0.59913763    -0.12300
C1839       C  0.83120277  0.56038086  0.61136972     0.09800
C1840       C  0.80492092  0.56879487  0.60096158    -0.12300
H1841       H  0.78279416  0.59422205  0.57134534     0.13800
H1842       H  0.87344741  0.59823580  0.56825702     0.13800
H1843       H  0.87628697  0.56499008  0.60665563     0.13800
H1844       H  0.78565621  0.56071510  0.60991493     0.13800
C1845       C  0.79575231  0.58768018  0.43538350    -0.12300
C1846       C  0.82114331  0.60057412  0.44342135     0.09800
C1847       C  0.84609009  0.59233811  0.43001820    -0.12300
C1848       C  0.84587641  0.57147127  0.40949843    -0.12300
C1849       C  0.82070699  0.55817062  0.40170218     0.09800
C1850       C  0.79553414  0.56665265  0.41468099    -0.12300
H1851       H  0.77616251  0.59356852  0.44530911     0.13800
H1852       H  0.86597302  0.60190288  0.43549351     0.13800
H1853       H  0.86561730  0.56567883  0.39982145     0.13800
H1854       H  0.77579687  0.55683378  0.40911448     0.13800
C1855       C  0.71944978  0.86215936  0.60818135    -0.12300
C1856       C  0.70810694  0.86343691  0.58548410    -0.13800
C1857       C  0.76162231  0.91406217  0.67819774    -0.12300
C1858       C  0.76994952  0.93770871  0.68254354    -0.13800
C1859       C  0.29761876  0.85078512  0.71951905    -0.12300
C1860       C  0.28186599  0.84962051  0.69936159    -0.13800
C1861       C  0.39327715  0.86441564  0.73743903    -0.12300
C1862       C  0.41601141  0.86616380  0.72619599    -0.13800
C1863       C  0.33030255  0.91711977  0.78348763    -0.12300
C1864       C  0.32913204  0.94034659  0.79378926    -0.13800
C1865       C  0.83878972  0.59054510  0.74093456    -0.12300
C1866       C  0.83766223  0.56816909  0.72918101    -0.13800
C1867       C  0.89765456  0.66405821  0.78490743    -0.12300
C1868       C  0.92095381  0.66925388  0.79373326    -0.13800
C1869       C  0.67132016  0.29710632  0.85280924    -0.12300
C1870       C  0.69077756  0.31333625  0.85491313    -0.13800
C1871       C  0.71951478  0.41362409  0.85937991    -0.12300
C1872       C  0.70981729  0.43727190  0.85856422    -0.13800
C1873       C  0.76354540  0.35122914  0.91920646    -0.12300
C1874       C  0.77692761  0.35001655  0.94078049    -0.13800
C1875       C  0.58036629  0.74039115  0.86325160    -0.12300
C1876       C  0.55814600  0.72811206  0.86359285    -0.13800
C1877       C  0.64695700  0.77943867  0.92112740    -0.12300
C1878       C  0.65011933  0.78755195  0.94499120    -0.13800
C1879       C  0.78558329  0.81217359  0.67014733    -0.12300
C1880       C  0.80205517  0.79299725  0.66737226    -0.13800
C1881       C  0.83515431  0.70884857  0.70314929    -0.12300
C1882       C  0.83476881  0.69240871  0.72260223    -0.13800
C1883       C  0.83322994  0.72121330  0.59864920    -0.12300
C1884       C  0.83087771  0.71087372  0.57548080    -0.13800
C1885       C  0.89608330  0.77176736  0.66467012    -0.12300
C1886       C  0.91821205  0.78381736  0.66822253    -0.13800
C1887       C  0.78278237  0.80775656  0.36175152    -0.12300
C1888       C  0.79932960  0.78873900  0.35847189    -0.13800
C1889       C  0.69405337  0.85018347  0.32907511    -0.12300
C1890       C  0.67936837  0.85554729  0.30904669    -0.13800
C1891       C  0.71786624  0.85621583  0.42764392    -0.12300
C1892       C  0.70821028  0.85952774  0.45096547    -0.13800
C1893       C  0.75660836  0.90930895  0.36129963    -0.12300
C1894       C  0.76455953  0.93336634  0.35969079    -0.13800
C1895       C  0.64277733  0.82780735  0.80360136    -0.12300
C1896       C  0.64485554  0.80971324  0.82122310    -0.13800
C1897       C  0.67404914  0.85602028  0.71687999    -0.12300
C1898       C  0.69409252  0.85319537  0.70151933    -0.13800
C1899       C  0.57298337  0.87115080  0.74037137    -0.12300
C1900       C  0.54952686  0.87088027  0.73068590    -0.13800
C1901       C  0.65424166  0.92126712  0.78228648    -0.12300
C1902       C  0.66137242  0.94246092  0.79421321    -0.13800
C1903       C  0.80432509  0.34971097  0.80959717    -0.12300
C1904       C  0.78496480  0.34860067  0.82614337    -0.13800
C1905       C  0.84000571  0.29618576  0.70530582    -0.12300
C1906       C  0.83819152  0.31393139  0.72343659    -0.13800
C1907       C  0.84115143  0.43903784  0.73003360    -0.12300
C1908       C  0.84212517  0.41630360  0.74083325    -0.13800
C1909       C  0.90082668  0.34311195  0.78333907    -0.12300
C1910       C  0.92458877  0.33889723  0.79115308    -0.13800
C1911       C  0.78331930  0.65950749  0.82786355    -0.12300
C1912       C  0.80189083  0.65784675  0.81039813    -0.13800
C1913       C  0.69057012  0.69654203  0.85871380    -0.12300
C1914       C  0.67396588  0.71567463  0.85698557    -0.13800
C1915       C  0.71853364  0.59544983  0.86178478    -0.12300
C1916       C  0.70960639  0.57149659  0.86076427    -0.13800
C1917       C  0.76150082  0.65643190  0.92273976    -0.12300
C1918       C  0.77371161  0.65713155  0.94501000    -0.13800
C1919       C  0.33821925  0.81701405  0.81100286    -0.12300
C1920       C  0.33948257  0.79910684  0.82901164    -0.13800
C1921       C  0.29933476  0.70898409  0.85973273    -0.12300
C1922       C  0.27935606  0.69368029  0.85639489    -0.13800
C1923       C  0.40151016  0.73338987  0.86511058    -0.12300
C1924       C  0.42545750  0.72463615  0.86529264    -0.13800
C1925       C  0.34376561  0.77652343  0.92511181    -0.12300
C1926       C  0.34456063  0.78718733  0.94815766    -0.13800
C1927       C  0.78403476  0.65402255  0.19562408    -0.12300
C1928       C  0.80301545  0.65018790  0.21210713    -0.13800
C1929       C  0.76353930  0.65113332  0.09941069    -0.12300
C1930       C  0.77539857  0.65118772  0.07692256    -0.13800
C1931       C  0.72001748  0.59516472  0.16464999    -0.12300
C1932       C  0.71185231  0.57140053  0.16786414    -0.13800
C1933       C  0.30271989  0.70293069  0.16853342    -0.12300
C1934       C  0.28430706  0.68544146  0.16718123    -0.13800
C1935       C  0.42717177  0.72118789  0.16980156    -0.12300
C1936       C  0.40355541  0.73044983  0.16792918    -0.13800
C1937       C  0.34308695  0.81520802  0.21378689    -0.12300
C1938       C  0.34043204  0.79640603  0.19686746    -0.13800
C1939       C  0.34590562  0.78437123  0.08102286    -0.12300
C1940       C  0.34578912  0.77189282  0.10321332    -0.13800
C1941       C  0.14607176  0.31003738  0.71233041    -0.12300
C1942       C  0.14592614  0.29037911  0.69614693    -0.13800
C1943       C  0.13900401  0.40799119  0.72952972    -0.12300
C1944       C  0.13910263  0.43086041  0.71828162    -0.13800
C1945       C  0.18140042  0.34849532  0.80292381    -0.12300
C1946       C  0.19864231  0.35169276  0.82127468    -0.13800
C1947       C  0.05831176  0.34054876  0.78144569    -0.12300
C1948       C  0.08186540  0.34317925  0.77224487    -0.13800
C1949       C  0.63938175  0.19025860  0.80370958    -0.12300
C1950       C  0.63855909  0.20920828  0.82075075    -0.13800
C1951       C  0.65128045  0.09478031  0.78423698    -0.12300
C1952       C  0.65810912  0.07293544  0.79517862    -0.13800
C1953       C  0.57211189  0.14468933  0.73922540    -0.12300
C1954       C  0.54855752  0.14416216  0.72975199    -0.13800
C1955       C  0.70184839  0.15617664  0.32357473    -0.12300
C1956       C  0.68676529  0.15826410  0.30313423    -0.13800
C1957       C  0.71562864  0.15855517  0.42861163    -0.12300
C1958       C  0.70705562  0.16012019  0.45253570    -0.13800
C1959       C  0.78756430  0.18271614  0.35785133    -0.12300
C1960       C  0.80634618  0.19983492  0.35716144    -0.13800
C1961       C  0.76892991  0.06703136  0.36147362    -0.12300
C1962       C  0.75881904  0.09017813  0.36392564    -0.13800
C1963       C  0.17711993  0.79501074  0.65935275    -0.12300
C1964       C  0.19705568  0.81107432  0.65987845    -0.13800
C1965       C  0.07360425  0.77824425  0.65361435    -0.12300
C1966       C  0.05045595  0.78796418  0.65762005    -0.13800
C1967       C  0.14572213  0.73089471  0.59383640    -0.12300
C1968       C  0.15057563  0.71957049  0.57135936    -0.13800
C1969       C  0.68942744  0.29859636  0.15947917    -0.12300
C1970       C  0.70800515  0.31606423  0.15894858    -0.13800
C1971       C  0.72620004  0.41845555  0.16207073    -0.12300
C1972       C  0.71468925  0.44072951  0.16552793    -0.13800
C1973       C  0.79411256  0.34668948  0.19237743    -0.12300
C1974       C  0.81050448  0.34269501  0.21142537    -0.13800
C1975       C  0.78086354  0.34829259  0.07310178    -0.12300
C1976       C  0.77075679  0.35126780  0.09627933    -0.13800
C1977       C  0.67678291  0.71504683  0.16333746    -0.12300
C1978       C  0.69400898  0.69638727  0.16199458    -0.13800
C1979       C  0.64519784  0.80644160  0.20298275    -0.12300
C1980       C  0.64779809  0.82547855  0.21969787    -0.13800
C1981       C  0.64412762  0.77888191  0.10197501    -0.12300
C1982       C  0.64787804  0.78768481  0.07831849    -0.13800
C1983       C  0.58147162  0.73370937  0.16375392    -0.12300
C1984       C  0.55948335  0.72082427  0.16569597    -0.13800
C1985       C  0.14110547  0.69030902  0.70663896    -0.12300
C1986       C  0.14083579  0.70909496  0.68943280    -0.13800
C1987       C  0.17034839  0.66233080  0.79564635    -0.12300
C1988       C  0.18716189  0.66492282  0.81454845    -0.13800
C1989       C  0.05502157  0.67023509  0.78670947    -0.12300
C1990       C  0.07670406  0.66463718  0.77433820    -0.13800
C1991       C  0.13501272  0.58879861  0.73127079    -0.12300
C1992       C  0.13741618  0.56534348  0.72166655    -0.13800
C1993       C  0.28492637  0.14849559  0.69689893    -0.12300
C1994       C  0.29945836  0.15172406  0.71756219    -0.13800
C1995       C  0.39313861  0.14645520  0.74025526    -0.12300
C1996       C  0.41539416  0.14448613  0.72808103    -0.13800
C1997       C  0.33178276  0.21504836  0.82601112    -0.12300
C1998       C  0.33174634  0.19788368  0.80710640    -0.13800
C1999       C  0.32726254  0.07157747  0.79841494    -0.12300
C2000       C  0.32889106  0.09494091  0.78854630    -0.13800
C2001       C  0.69503829  0.15817894  0.70346801    -0.12300
C2002       C  0.67449324  0.15692669  0.71847964    -0.13800
C2003       C  0.79004408  0.19351960  0.67510599    -0.12300
C2004       C  0.80854096  0.21085974  0.67312022    -0.13800
C2005       C  0.76890660  0.07042054  0.68481092    -0.12300
C2006       C  0.76005403  0.09382627  0.68045129    -0.13800
C2007       C  0.72122620  0.15025574  0.61047760    -0.12300
C2008       C  0.70961808  0.15080484  0.58780938    -0.13800
C2009       C  0.14177117  0.70381901  0.31965252    -0.12300
C2010       C  0.14421613  0.68445808  0.30330295    -0.13800
C2011       C  0.14874163  0.72794853  0.41412420    -0.12300
C2012       C  0.15385942  0.71732876  0.43672713    -0.13800
C2013       C  0.19674744  0.80592689  0.34744616    -0.12300
C2014       C  0.17634952  0.79055697  0.34734651    -0.13800
C2015       C  0.07328411  0.77191795  0.35750786    -0.12300
C2016       C  0.04973534  0.78143330  0.35690613    -0.13800
loop_ 
_geom_bond_atom_site_label_1 
_geom_bond_atom_site_label_2 
_geom_bond_distance 
_geom_bond_site_symmetry_2 
_ccdc_geom_bond_type 
C1            C2   1.539       .  S
C1            C7   1.532       .  S
C1            C5   1.528       .  S
C1         C2015   1.476       .  S
C2            H9   1.086       .  S
C2            C3   1.369       .  D
C3            C4   1.548       .  S
C3         C2014   1.458       .  S
C4            C8   1.552       .  S
C4            C6   1.550       .  S
C4           H10   1.111       .  S
C5           H11   1.087       .  S
C5            C6   1.362       .  D
C6         C2009   1.452       .  S
C7           H12   1.087       .  S
C7            C8   1.364       .  D
C8         C2011   1.458       .  S
C13          C14   1.531       .  S
C13          C19   1.537       .  S
C13          C17   1.533       .  S
C13        C2003   1.476       .  S
C14          H21   1.087       .  S
C14          C15   1.365       .  D
C15          C16   1.545       .  S
C15        C2006   1.450       .  S
C16          C20   1.545       .  S
C16          C18   1.550       .  S
C16          H22   1.111       .  S
C17          H23   1.087       .  S
C17          C18   1.362       .  D
C18        C2007   1.456       .  S
C19          H24   1.086       .  S
C19          C20   1.368       .  D
C20        C2001   1.453       .  S
C25          C26   1.534       .  S
C25          C31   1.537       .  S
C25          C29   1.541       .  S
C25        C1998   1.486       .  S
C26          H33   1.087       .  S
C26          C27   1.364       .  D
C27          C28   1.543       .  S
C27        C1995   1.450       .  S
C28          C32   1.539       .  S
C28          C30   1.543       .  S
C28          H34   1.111       .  S
C29          H35   1.086       .  S
C29          C30   1.371       .  D
C30        C1994   1.456       .  S
C31          H36   1.087       .  S
C31          C32   1.367       .  D
C32        C2000   1.450       .  S
C37          C38   1.529       .  S
C37          C43   1.536       .  S
C37          C41   1.536       .  S
C37        C1991   1.480       .  S
C38          H45   1.088       .  S
C38          C39   1.363       .  D
C39          C40   1.548       .  S
C39        C1987   1.451       .  S
C40          C44   1.551       .  S
C40          C42   1.550       .  S
C40          H46   1.111       .  S
C41          H47   1.087       .  S
C41          C42   1.368       .  D
C42        C1990   1.461       .  S
C43          H48   1.087       .  S
C43          C44   1.366       .  D
C44        C1985   1.457       .  S
C49          C50   1.532       .  S
C49          C55   1.537       .  S
C49          C53   1.534       .  S
C49        C1979   1.480       .  S
C50          H57   1.086       .  S
C50          C51   1.364       .  D
C51          C52   1.553       .  S
C51        C1983   1.458       .  S
C52          C56   1.548       .  S
C52          C54   1.547       .  S
C52          H58   1.111       .  S
C53          H59   1.086       .  S
C53          C54   1.365       .  D
C54        C1977   1.451       .  S
C55          H60   1.086       .  S
C55          C56   1.368       .  D
C56        C1981   1.459       .  S
C61          C62   1.525       .  S
C61          C67   1.533       .  S
C61          C65   1.530       .  S
C61        C1971   1.468       .  S
C62          H69   1.087       .  S
C62          C63   1.362       .  D
C63          C64   1.555       .  S
C63        C1973   1.453       .  S
C64          C68   1.549       .  S
C64          C66   1.552       .  S
C64          H70   1.111       .  S
C65          H71   1.087       .  S
C65          C66   1.364       .  D
C66        C1976   1.453       .  S
C67          H72   1.087       .  S
C67          C68   1.365       .  D
C68        C1970   1.454       .  S
C73          C74   1.535       .  S
C73          C79   1.537       .  S
C73          C77   1.524       .  S
C73        C1965   1.476       .  S
C74          H81   1.086       .  S
C74          C75   1.367       .  D
C75          C76   1.558       .  S
C75        C1967   1.466       .  S
C76          C80   1.554       .  S
C76          C78   1.556       .  S
C76          H82   1.111       .  S
C77          H83   1.088       .  S
C77          C78   1.359       .  D
C78        C1986   1.454       .  S
C79          H84   1.087       .  S
C79          C80   1.368       .  D
C80        C1963   1.463       .  S
C85          C86   1.529       .  S
C85          C91   1.544       .  S
C85          C89   1.528       .  S
C85        C1957   1.480       .  S
C86          H93   1.088       .  S
C86          C87   1.361       .  D
C87          C88   1.546       .  S
C87        C1962   1.446       .  S
C88          C92   1.543       .  S
C88          C90   1.544       .  S
C88          H94   1.111       .  S
C89          H95   1.087       .  S
C89          C90   1.364       .  D
C90        C1959   1.448       .  S
C91          H96   1.086       .  S
C91          C92   1.374       .  D
C92        C1955   1.459       .  S
C97          C98   1.530       .  S
C97         C103   1.540       .  S
C97         C101   1.528       .  S
C97        C1953   1.475       .  S
C98         H105   1.087       .  S
C98          C99   1.364       .  D
C99         C100   1.545       .  S
C99        C1951   1.448       .  S
C100        C104   1.544       .  S
C100        C102   1.550       .  S
C100        H106   1.111       .  S
C101        H107   1.087       .  S
C101        C102   1.363       .  D
C102       C1949   1.455       .  S
C103        H108   1.086       .  S
C103        C104   1.369       .  D
C104       C2002   1.453       .  S
C109        C110   1.533       .  S
C109        C115   1.531       .  S
C109        C113   1.534       .  S
C109       C1945   1.476       .  S
C110        H117   1.087       .  S
C110        C111   1.366       .  D
C111        C112   1.543       .  S
C111       C1948   1.448       .  S
C112        C116   1.551       .  S
C112        C114   1.548       .  S
C112        H118   1.111       .  S
C113        H119   1.086       .  S
C113        C114   1.367       .  D
C114       C1941   1.453       .  S
C115        H120   1.087       .  S
C115        C116   1.362       .  D
C116       C1943   1.455       .  S
C121        C122   1.534       .  S
C121        C127   1.533       .  S
C121        C125   1.537       .  S
C121       C1933   1.476       .  S
C122        H129   1.087       .  S
C122        C123   1.366       .  D
C123        C124   1.547       .  S
C123       C1938   1.451       .  S
C124        C128   1.545       .  S
C124        C126   1.545       .  S
C124        H130   1.111       .  S
C125        H131   1.087       .  S
C125        C126   1.364       .  D
C126       C1940   1.455       .  S
C127        H132   1.087       .  S
C127        C128   1.366       .  D
C128       C1936   1.452       .  S
C133        C134   1.540       .  S
C133        C139   1.535       .  S
C133        C137   1.531       .  S
C133       C1978   1.478       .  S
C134        H141   1.086       .  S
C134        C135   1.369       .  D
C135        C136   1.542       .  S
C135       C1927   1.453       .  S
C136        C140   1.536       .  S
C136        C138   1.546       .  S
C136        H142   1.112       .  S
C137        H143   1.087       .  S
C137        C138   1.362       .  D
C138       C1929   1.450       .  S
C139        H144   1.086       .  S
C139        C140   1.367       .  D
C140       C1931   1.443       .  S
C145        C146   1.538       .  S
C145        C151   1.526       .  S
C145        C149   1.531       .  S
C145       C1921   1.472       .  S
C146        H153   1.087       .  S
C146        C147   1.370       .  D
C147        C148   1.545       .  S
C147       C1923   1.456       .  S
C148        C152   1.552       .  S
C148        C150   1.547       .  S
C148        H154   1.111       .  S
C149        H155   1.087       .  S
C149        C150   1.363       .  D
C150       C1925   1.449       .  S
C151        H156   1.088       .  S
C151        C152   1.359       .  D
C152       C1920   1.451       .  S
C157        C158   1.536       .  S
C157        C163   1.534       .  S
C157        C161   1.531       .  S
C157       C1913   1.476       .  S
C158        H165   1.087       .  S
C158        C159   1.368       .  D
C159        C160   1.550       .  S
C159       C1915   1.461       .  S
C160        C164   1.552       .  S
C160        C162   1.549       .  S
C160        H166   1.111       .  S
C161        H167   1.087       .  S
C161        C162   1.362       .  D
C162       C1917   1.451       .  S
C163        H168   1.087       .  S
C163        C164   1.365       .  D
C164       C1911   1.459       .  S
C169        C170   1.520       .  S
C169        C175   1.534       .  S
C169        C173   1.525       .  S
C169       C1908   1.459       .  S
C170        H177   1.088       .  S
C170        C171   1.359       .  D
C171        C172   1.558       .  S
C171       C1903   1.452       .  S
C172        C176   1.546       .  S
C172        C174   1.549       .  S
C172        H178   1.111       .  S
C173        H179   1.088       .  S
C173        C174   1.361       .  D
C174       C1909   1.446       .  S
C175        H180   1.087       .  S
C175        C176   1.366       .  D
C176       C1906   1.451       .  S
C181        C182   1.530       .  S
C181        C187   1.539       .  S
C181        C185   1.532       .  S
C181       C1899   1.474       .  S
C182        H189   1.087       .  S
C182        C183   1.363       .  D
C183        C184   1.542       .  S
C183       C1895   1.445       .  S
C184        C188   1.539       .  S
C184        C186   1.540       .  S
C184        H190   1.111       .  S
C185        H191   1.087       .  S
C185        C186   1.365       .  D
C186       C1901   1.443       .  S
C187        H192   1.086       .  S
C187        C188   1.367       .  D
C188       C1897   1.447       .  S
C193        C194   1.533       .  S
C193        C199   1.539       .  S
C193        C197   1.533       .  S
C193       C1887   1.477       .  S
C194        H201   1.086       .  S
C194        C195   1.364       .  D
C195        C196   1.547       .  S
C195       C1891   1.453       .  S
C196        C200   1.535       .  S
C196        C198   1.547       .  S
C196        H202   1.111       .  S
C197        H203   1.087       .  S
C197        C198   1.364       .  D
C198       C1889   1.452       .  S
C199        H204   1.086       .  S
C199        C200   1.369       .  D
C200       C1893   1.447       .  S
C205        C206   1.540       .  S
C205        C211   1.533       .  S
C205        C209   1.531       .  S
C205       C1883   1.482       .  S
C206        H213   1.087       .  S
C206        C207   1.371       .  D
C207        C208   1.544       .  S
C207       C1881   1.456       .  S
C208        C212   1.545       .  S
C208        C210   1.546       .  S
C208        H214   1.111       .  S
C209        H215   1.087       .  S
C209        C210   1.364       .  D
C210       C1880   1.450       .  S
C211        H216   1.087       .  S
C211        C212   1.364       .  D
C212       C1885   1.450       .  S
C217        C218   1.536       .  S
C217        C223   1.534       .  S
C217        C221   1.531       .  S
C217       C1896   1.473       .  S
C218        H225   1.087       .  S
C218        C219   1.367       .  D
C219        C220   1.543       .  S
C219       C1914   1.448       .  S
C220        C224   1.541       .  S
C220        C222   1.544       .  S
C220        H226   1.111       .  S
C221        H227   1.087       .  S
C221        C222   1.360       .  D
C222       C1875   1.445       .  S
C223        H228   1.087       .  S
C223        C224   1.367       .  D
C224       C1877   1.450       .  S
C229        C230   1.533       .  S
C229        C235   1.534       .  S
C229        C233   1.534       .  S
C229       C1870   1.475       .  S
C230        H237   1.086       .  S
C230        C231   1.365       .  D
C231        C232   1.551       .  S
C231       C1904   1.454       .  S
C232        C236   1.552       .  S
C232        C234   1.548       .  S
C232        H238   1.111       .  S
C233        H239   1.087       .  S
C233        C234   1.364       .  D
C234       C1873   1.452       .  S
C235        H240   1.087       .  S
C235        C236   1.366       .  D
C236       C1871   1.462       .  S
C241        C242   1.531       .  S
C241        C247   1.524       .  S
C241        C245   1.530       .  S
C241       C1865   1.466       .  S
C242        H249   1.087       .  S
C242        C243   1.364       .  D
C243        C244   1.551       .  S
C243       C1882   1.455       .  S
C244        C248   1.561       .  S
C244        C246   1.550       .  S
C244        H250   1.111       .  S
C245        H251   1.087       .  S
C245        C246   1.364       .  D
C246       C1867   1.452       .  S
C247        H252   1.088       .  S
C247        C248   1.361       .  D
C248       C1912   1.457       .  S
C253        C254   1.542       .  S
C253        C259   1.532       .  S
C253        C257   1.528       .  S
C253       C1919   1.480       .  S
C254        H261   1.086       .  S
C254        C255   1.371       .  D
C255        C256   1.553       .  S
C255       C1859   1.467       .  S
C256        C260   1.544       .  S
C256        C258   1.548       .  S
C256        H262   1.111       .  S
C257        H263   1.088       .  S
C257        C258   1.360       .  D
C258       C1861   1.447       .  S
C259        H264   1.087       .  S
C259        C260   1.366       .  D
C260       C1863   1.450       .  S
C265        C266   1.537       .  S
C265        C271   1.537       .  S
C265        C269   1.532       .  S
C265       C1879   1.478       .  S
C266        H273   1.087       .  S
C266        C267   1.367       .  D
C267        C268   1.542       .  S
C267       C1898   1.448       .  S
C268        C272   1.540       .  S
C268        C270   1.545       .  S
C268        H274   1.111       .  S
C269        H275   1.087       .  S
C269        C270   1.361       .  D
C270       C1855   1.451       .  S
C271        H276   1.086       .  S
C271        C272   1.368       .  D
C272       C1857   1.451       .  S
O277       Cu285   1.981       .  S
O277        C287   1.275       .  A
O278       Cu285   1.994       .  S
O278        C288   1.274       .  A
O279       Cu285   2.017       .  S
O279        C289   1.277       .  A
O280       Cu285   2.009       .  S
O280        C290   1.279       .  A
O281       Cu286   2.022       .  S
O281        C290   1.279       .  A
O282       Cu286   2.029       .  S
O282        C289   1.279       .  A
O283       Cu286   2.024       .  S
O283        C288   1.279       .  A
O284       Cu286   2.007       .  S
O284        C287   1.278       .  A
Cu285      Cu286   2.374       .  S
C287       C1836   1.471       .  S
C288       C1833   1.436       .  S
C289       C1884   1.448       .  S
C290       C1846   1.485       .  S
O291       Cu299   1.991       .  S
O291        C301   1.276       .  A
O292       Cu299   1.994       .  S
O292        C302   1.274       .  A
O293       Cu299   2.012       .  S
O293        C303   1.277       .  A
O294       Cu299   2.006       .  S
O294        C304   1.278       .  A
O295       Cu300   1.994       .  S
O295        C304   1.277       .  A
O296       Cu300   2.000       .  S
O296        C303   1.275       .  A
O297       Cu300   1.998       .  S
O297        C302   1.275       .  A
O298       Cu300   1.996       .  S
O298        C301   1.278       .  A
Cu299      Cu300   2.378       .  S
C301       C1839   1.471       .  S
C302       C1907   1.425       .  S
C303       C1866   1.432       .  S
C304       C1824   1.475       .  S
O305       Cu313   2.031       .  S
O305        C315   1.280       .  A
O306       Cu313   2.014       .  S
O306        C316   1.278       .  A
O307       Cu313   2.013       .  S
O307        C317   1.279       .  A
O308       Cu313   2.024       .  S
O308        C318   1.279       .  A
O309       Cu314   2.010       .  S
O309        C318   1.277       .  A
O310       Cu314   1.999       .  S
O310        C317   1.277       .  A
O311       Cu314   2.004       .  S
O311        C316   1.279       .  A
O312       Cu314   2.023       .  S
O312        C315   1.277       .  A
Cu313      Cu314   2.372       .  S
C315       C2008   1.450       .  S
C316       C1817   1.481       .  S
C317       C1804   1.479       .  S
C318       C1958   1.445       .  S
O319       Cu327   2.004       .  S
O319        C329   1.279       .  A
O320       Cu327   2.015       .  S
O320        C330   1.277       .  A
O321       Cu327   2.025       .  S
O321        C331   1.278       .  A
O322       Cu327   2.009       .  S
O322        C332   1.279       .  A
O323       Cu328   2.001       .  S
O323        C332   1.278       .  A
O324       Cu328   2.013       .  S
O324        C331   1.277       .  A
O325       Cu328   2.011       .  S
O325        C330   1.277       .  A
O326       Cu328   2.006       .  S
O326        C329   1.277       .  A
Cu327      Cu328   2.374       .  S
C329       C1794   1.478       .  S
C330       C1954   1.440       .  S
C331       C1996   1.444       .  S
C332       C1807   1.479       .  S
O333       Cu341   2.011       .  S
O333        C343   1.278       .  A
O334       Cu341   2.027       .  S
O334        C344   1.279       .  A
O335       Cu341   2.031       .  S
O335        C345   1.280       .  A
O336       Cu341   2.020       .  S
O336        C346   1.279       .  A
O337       Cu342   1.999       .  S
O337        C346   1.278       .  A
O338       Cu342   2.020       .  S
O338        C345   1.277       .  A
O339       Cu342   2.009       .  S
O339        C344   1.276       .  A
O340       Cu342   1.989       .  S
O340        C343   1.277       .  A
Cu341      Cu342   2.373       .  S
C343       C1787   1.474       .  S
C344       C1992   1.445       .  S
C345       C1944   1.450       .  S
C346       C1774   1.482       .  S
O347       Cu355   2.007       .  S
O347        C357   1.279       .  A
O348       Cu355   2.023       .  S
O348        C358   1.278       .  A
O349       Cu355   2.011       .  S
O349        C359   1.276       .  A
O350       Cu355   1.992       .  S
O350        C360   1.277       .  A
O351       Cu356   2.025       .  S
O351        C360   1.280       .  A
O352       Cu356   2.045       .  S
O352        C359   1.281       .  A
O353       Cu356   2.051       .  S
O353        C358   1.282       .  A
O354       Cu356   2.034       .  S
O354        C357   1.280       .  A
Cu355      Cu356   2.369       .  S
C357       C1764   1.490       .  S
C358       C1968   1.460       .  S
C359       C2012   1.452       .  S
C360       C1777   1.482       .  S
O361       Cu369   1.997       .  S
O361        C371   1.277       .  A
O362       Cu369   2.013       .  S
O362        C372   1.276       .  A
O363       Cu369   2.016       .  S
O363        C373   1.277       .  A
O364       Cu369   2.003       .  S
O364        C374   1.278       .  A
O365       Cu370   1.995       .  S
O365        C374   1.276       .  A
O366       Cu370   2.009       .  S
O366        C373   1.276       .  A
O367       Cu370   2.018       .  S
O367        C372   1.278       .  A
O368       Cu370   2.009       .  S
O368        C371   1.279       .  A
Cu369      Cu370   2.375       .  S
C371       C1744   1.477       .  S
C372       C1862   1.441       .  S
C373       C1900   1.439       .  S
C374       C1754   1.474       .  S
O375       Cu383   2.004       .  S
O375        C385   1.277       .  A
O376       Cu383   2.021       .  S
O376        C386   1.277       .  A
O377       Cu383   2.028       .  S
O377        C387   1.279       .  A
O378       Cu383   2.012       .  S
O378        C388   1.279       .  A
O379       Cu384   1.996       .  S
O379        C388   1.276       .  A
O380       Cu384   2.008       .  S
O380        C387   1.276       .  A
O381       Cu384   2.019       .  S
O381        C386   1.278       .  A
O382       Cu384   2.004       .  S
O382        C385   1.278       .  A
Cu383      Cu384   2.373       .  S
C385       C1734   1.478       .  S
C386       C1856   1.445       .  S
C387       C1892   1.445       .  S
C388       C1747   1.478       .  S
O389       Cu397   1.994       .  S
O389        C399   1.274       .  A
O390       Cu397   1.990       .  S
O390        C400   1.276       .  A
O391       Cu397   1.989       .  S
O391        C401   1.277       .  A
O392       Cu397   1.995       .  S
O392        C402   1.274       .  A
O393       Cu398   2.021       .  S
O393        C402   1.278       .  A
O394       Cu398   2.017       .  S
O394        C401   1.279       .  A
O395       Cu398   2.019       .  S
O395        C400   1.279       .  A
O396       Cu398   2.022       .  S
O396        C399   1.278       .  A
Cu397      Cu398   2.375       .  S
C399       C1932   1.434       .  S
C400       C1724   1.479       .  S
C401       C1714   1.478       .  S
C402       C1972   1.434       .  S
O403       Cu411   1.998       .  S
O403        C413   1.278       .  A
O404       Cu411   2.012       .  S
O404        C414   1.276       .  A
O405       Cu411   2.017       .  S
O405        C415   1.276       .  A
O406       Cu411   2.008       .  S
O406        C416   1.279       .  A
O407       Cu412   2.039       .  S
O407        C416   1.281       .  A
O408       Cu412   2.042       .  S
O408        C415   1.282       .  A
O409       Cu412   2.028       .  S
O409        C414   1.279       .  A
O410       Cu412   2.013       .  S
O410        C413   1.278       .  A
Cu411      Cu412   2.371       .  S
C413       C1717   1.479       .  S
C414       C1935   1.445       .  S
C415       C1984   1.452       .  S
C416       C1704   1.491       .  S
O417       Cu425   2.020       .  S
O417        C427   1.277       .  A
O418       Cu425   2.014       .  S
O418        C428   1.278       .  A
O419       Cu425   2.002       .  S
O419        C429   1.278       .  A
O420       Cu425   2.016       .  S
O420        C430   1.278       .  A
O421       Cu426   2.008       .  S
O421        C430   1.276       .  A
O422       Cu426   1.996       .  S
O422        C429   1.276       .  A
O423       Cu426   2.023       .  S
O423        C428   1.281       .  A
O424       Cu426   2.031       .  S
O424        C427   1.280       .  A
Cu425      Cu426   2.373       .  S
C427       C1924   1.449       .  S
C428       C1684   1.488       .  S
C429       C1694   1.474       .  S
C430       C1876   1.439       .  S
O431       Cu439   2.027       .  S
O431        C441   1.278       .  A
O432       Cu439   2.011       .  S
O432        C442   1.278       .  A
O433       Cu439   2.020       .  S
O433        C443   1.280       .  A
O434       Cu439   2.029       .  S
O434        C444   1.279       .  A
O435       Cu440   2.035       .  S
O435        C444   1.280       .  A
O436       Cu440   2.026       .  S
O436        C443   1.280       .  A
O437       Cu440   2.027       .  S
O437        C442   1.280       .  A
O438       Cu440   2.043       .  S
O438        C441   1.281       .  A
Cu439      Cu440   2.369       .  S
C441       C1872   1.456       .  S
C442       C1687   1.488       .  S
C443       C1674   1.491       .  S
C444       C1916   1.455       .  S
C445        C446   1.526       .  S
C445        C451   1.528       .  S
C445        C449   1.536       .  S
C445       C1671   1.474       .  S
C446        H453   1.087       .  S
C446        C447   1.364       .  D
C447        C448   1.558       .  S
C447       C1667   1.460       .  S
C448        C452   1.555       .  S
C448        C450   1.547       .  S
C448        H454   1.111       .  S
C449        H455   1.087       .  S
C449        C450   1.368       .  D
C450       C1669   1.453       .  S
C451        H456   1.087       .  S
C451        C452   1.362       .  D
C452       C1956   1.457       .  S
C457        C458   1.534       .  S
C457        C463   1.529       .  S
C457        C461   1.536       .  S
C457       C1664   1.473       .  S
C458        H465   1.087       .  S
C458        C459   1.365       .  D
C459        C460   1.547       .  S
C459       C1980   1.453       .  S
C460        C464   1.549       .  S
C460        C462   1.542       .  S
C460        H466   1.111       .  S
C461        H467   1.087       .  S
C461        C462   1.365       .  D
C462       C1665   1.449       .  S
C463        H468   1.087       .  S
C463        C464   1.364       .  D
C464       C1890   1.452       .  S
O469       Cu477   2.017       .  S
O469        C479   1.280       .  A
O470       Cu477   2.029   1_565  S
O470        C480   1.279       .  A
O471       Cu477   2.032       .  S
O471        C481   1.279       .  A
O472       Cu477   2.033   1_565  S
O472        C482   1.280       .  A
O473       Cu478   1.995   1_565  S
O473        C482   1.278       .  A
O474       Cu478   1.998       .  S
O474        C481   1.275       .  A
O475       Cu478   1.989   1_565  S
O475        C480   1.273       .  A
O476       Cu478   1.981       .  S
O476        C479   1.275       .  A
Cu477      Cu478   2.374       .  S
C479       C1647   1.475       .  S
C480       C1902   1.435       .  S
C481       C1952   1.441       .  S
C482       C1654   1.485       .  S
O483       Cu491   2.045       .  S
O483        C493   1.282       .  A
O484       Cu491   2.034   1_556  S
O484        C494   1.280       .  A
O485       Cu491   2.019       .  S
O485        C495   1.279       .  A
O486       Cu491   2.029   1_556  S
O486        C496   1.279       .  A
O487       Cu492   2.008   1_556  S
O487        C496   1.276       .  A
O488       Cu492   1.998       .  S
O488        C495   1.278       .  A
O489       Cu492   1.998   1_556  S
O489        C494   1.278       .  A
O490       Cu492   2.013       .  S
O490        C493   1.276       .  A
Cu491      Cu492   2.371       .  S
C493       C1982   1.452       .  S
C494       C1657   1.486       .  S
C495       C1634   1.482       .  S
C496       C1878   1.443       .  S
C497        C498   1.529       .  S
C497        C503   1.537       .  S
C497        C501   1.533       .  S
C497       C1631   1.475       .  S
C498        H505   1.087       .  S
C498        C499   1.365       .  D
C499        C500   1.551       .  S
C499       C1950   1.455       .  S
C500        C504   1.542       .  S
C500        C502   1.543       .  S
C500        H506   1.111       .  S
C501        H507   1.087       .  S
C501        C502   1.364       .  D
C502       C1630   1.449       .  S
C503        H508   1.087       .  S
C503        C504   1.366       .  D
C504       C1869   1.448       .  S
O509       Cu517   1.999   1_556  S
O509        C519   1.278       .  A
O510       Cu517   2.011       .  S
O510        C520   1.277       .  A
O511       Cu517   1.997   1_556  S
O511        C521   1.274       .  A
O512       Cu517   1.982       .  S
O512        C522   1.276       .  A
O513       Cu518   2.020       .  S
O513        C522   1.279       .  A
O514       Cu518   2.033   1_556  S
O514        C521   1.280       .  A
O515       Cu518   2.022       .  S
O515        C520   1.278       .  A
O516       Cu518   2.000   1_556  S
O516        C519   1.277       .  A
Cu517      Cu518   2.374       .  S
C519       C1644   1.475       .  S
C520       C1627   1.444       .  S
C521       C1629   1.442       .  S
C522       C1618   1.477       .  S
O523       Cu531   1.999   1_565  S
O523        C533   1.275       .  A
O524       Cu531   1.988       .  S
O524        C534   1.277       .  A
O525       Cu531   1.993   1_565  S
O525        C535   1.277       .  A
O526       Cu531   2.002       .  S
O526        C536   1.275       .  A
O527       Cu532   2.040       .  S
O527        C536   1.281       .  A
O528       Cu532   2.033   1_565  S
O528        C535   1.281       .  A
O529       Cu532   2.017       .  S
O529        C534   1.279       .  A
O530       Cu532   2.026   1_565  S
O530        C533   1.279       .  A
Cu531      Cu532   2.373       .  S
C533       C1663   1.438       .  S
C534       C1621   1.477       .  S
C535       C1637   1.484       .  S
C536       C1670   1.446       .  S
C537        C538   1.539       .  S
C537        C543   1.528       .  S
C537        C541   1.529       .  S
C537       C1615   1.480       .  S
C538        H545   1.087       .  S
C538        C539   1.370       .  D
C539        C540   1.544       .  S
C539       C1969   1.455       .  S
C540        C544   1.555       .  S
C540        C542   1.550       .  S
C540        H546   1.111       .  S
C541        H547   1.087       .  S
C541        C542   1.362       .  D
C542       C1628   1.451       .  S
C543        H548   1.087       .  S
C543        C544   1.365       .  D
C544       C1668   1.460       .  S
O549       Cu557   2.013   1_556  S
O549        C559   1.279       .  A
O550       Cu557   2.027       .  S
O550        C560   1.278       .  A
O551       Cu557   2.015   1_556  S
O551        C561   1.277       .  A
O552       Cu557   2.002       .  S
O552        C562   1.278       .  A
O553       Cu558   2.009       .  S
O553        C562   1.278       .  A
O554       Cu558   2.016   1_556  S
O554        C561   1.278       .  A
O555       Cu558   2.026       .  S
O555        C560   1.278       .  A
O556       Cu558   2.015   1_556  S
O556        C559   1.279       .  A
Cu557      Cu558   2.373       .  S
C559       C1606   1.485       .  S
C560       C1939   1.449       .  S
C561       C1926   1.442       .  S
C562       C1596   1.479       .  S
O563       Cu571   2.027   1_565  S
O563        C573   1.280       .  A
O564       Cu571   2.029       .  S
O564        C574   1.279       .  A
O565       Cu571   2.022   1_565  S
O565        C575   1.278       .  A
O566       Cu571   2.016       .  S
O566        C576   1.279       .  A
O567       Cu572   2.017       .  S
O567        C576   1.280       .  A
O568       Cu572   2.020   1_565  S
O568        C575   1.278       .  A
O569       Cu572   2.008       .  S
O569        C574   1.276       .  A
O570       Cu572   2.005   1_565  S
O570        C573   1.278       .  A
Cu571      Cu572   2.372       .  S
C573       C1609   1.486       .  S
C574       C1999   1.443       .  S
C575       C1864   1.444       .  S
C576       C1586   1.487       .  S
C577        C578   1.526       .  S
C577        C583   1.543       .  S
C577        C581   1.526       .  S
C577       C1579   1.473       .  S
C578        H585   1.088       .  S
C578        C579   1.361       .  D
C579        C580   1.551       .  S
C579       C1937   1.449       .  S
C580        C584   1.545       .  S
C580        C582   1.548       .  S
C580        H586   1.111       .  S
C581        H587   1.088       .  S
C581        C582   1.359       .  D
C582       C1583   1.445       .  S
C583        H588   1.086       .  S
C583        C584   1.373       .  D
C584       C1581   1.461       .  S
O589       Cu597   2.013   1_565  S
O589        C599   1.276       .  A
O590       Cu597   1.997       .  S
O590        C600   1.277       .  A
O591       Cu597   2.020   1_565  S
O591        C601   1.280       .  A
O592       Cu597   2.031       .  S
O592        C602   1.280       .  A
O593       Cu598   1.998       .  S
O593        C602   1.275       .  A
O594       Cu598   1.987   1_565  S
O594        C601   1.276       .  A
O595       Cu598   2.002       .  S
O595        C600   1.278       .  A
O596       Cu598   2.012   1_565  S
O596        C599   1.278       .  A
Cu597      Cu598   2.374       .  S
C599       C1584   1.439       .  S
C600       C1568   1.475       .  S
C601       C1599   1.478       .  S
C602       C1577   1.441       .  S
O603       Cu611   1.993       .  S
O603        C613   1.276       .  A
O604       Cu611   2.007   1_556  S
O604        C614   1.276       .  A
O605       Cu611   2.021       .  S
O605        C615   1.278       .  A
O606       Cu611   2.014   1_556  S
O606        C616   1.279       .  A
O607       Cu612   2.022   1_556  S
O607        C616   1.280       .  A
O608       Cu612   2.035       .  S
O608        C615   1.279       .  A
O609       Cu612   2.025   1_556  S
O609        C614   1.279       .  A
O610       Cu612   2.007       .  S
O610        C613   1.278       .  A
Cu611      Cu612   2.372       .  S
C613       C1571   1.475       .  S
C614       C1565   1.442       .  S
C615       C1564   1.451       .  S
C616       C1589   1.487       .  S
C617        C618   1.534       .  S
C617        C623   1.536       .  S
C617        C621   1.528       .  S
C617       C1566   1.477       .  S
C618        H625   1.087       .  S
C618        C619   1.365       .  D
C619        C620   1.548       .  S
C619       C1562   1.456       .  S
C620        C624   1.550       .  S
C620        C622   1.549       .  S
C620        H626   1.111       .  S
C621        H627   1.087       .  S
C621        C622   1.363       .  D
C622       C1559   1.450       .  S
C623        H628   1.087       .  S
C623        C624   1.368       .  D
C624       C1997   1.458       .  S
C629        C630   1.535       .  S
C629        C635   1.524       .  S
C629        C633   1.532       .  S
C629       C1558   1.467       .  S
C630        H637   1.087       .  S
C630        C631   1.366       .  D
C631        C632   1.549       .  S
C631       C2010   1.452       .  S
C632        C636   1.552       .  S
C632        C634   1.551       .  S
C632        H638   1.111       .  S
C633        H639   1.087       .  S
C633        C634   1.364       .  D
C634       C1555   1.455       .  S
C635        H640   1.087       .  S
C635        C636   1.360       .  D
C636       C1554   1.449       .  S
C641        C642   1.525       .  S
C641        C647   1.536       .  S
C641        C645   1.531       .  S
C641       C1549   1.470       .  S
C642        H649   1.088       .  S
C642        C643   1.360       .  D
C643        C644   1.550       .  S
C643       C1547   1.450       .  S
C644        C648   1.548       .  S
C644        C646   1.551       .  S
C644        H650   1.111       .  S
C645        H651   1.087       .  S
C645        C646   1.365       .  D
C646       C1551   1.455       .  S
C647        H652   1.087       .  S
C647        C648   1.367       .  D
C648       C1928   1.453       .  S
O653       Cu661   2.056   1_455  S
O653        C663   1.283       .  A
O654       Cu661   2.038       .  S
O654        C664   1.281       .  A
O655       Cu661   2.018   1_455  S
O655        C665   1.278       .  A
O656       Cu661   2.030       .  S
O656        C666   1.279       .  A
O657       Cu662   2.006       .  S
O657        C666   1.276       .  A
O658       Cu662   1.994   1_455  S
O658        C665   1.278       .  A
O659       Cu662   1.987       .  S
O659        C664   1.276       .  A
O660       Cu662   2.006   1_455  S
O660        C663   1.275       .  A
Cu661      Cu662   2.371       .  S
C663       C1989   1.454       .  S
C664       C1538   1.485       .  S
C665       C1528   1.479       .  S
C666       C1868   1.445       .  S
O667       Cu675   2.026       .  S
O667        C677   1.280       .  A
O668       Cu675   2.032   1_556  S
O668        C678   1.280       .  A
O669       Cu675   2.018       .  S
O669        C679   1.278       .  A
O670       Cu675   2.015   1_556  S
O670        C680   1.278       .  A
O671       Cu676   2.006   1_556  S
O671        C680   1.280       .  A
O672       Cu676   2.018       .  S
O672        C679   1.277       .  A
O673       Cu676   2.008   1_556  S
O673        C678   1.275       .  A
O674       Cu676   1.997       .  S
O674        C677   1.277       .  A
Cu675      Cu676   2.373       .  S
C677       C1521   1.484       .  S
C678       C1918   1.445       .  S
C679       C1930   1.443       .  S
C680       C1541   1.483       .  S
C681        C682   1.539       .  S
C681        C687   1.538       .  S
C681        C685   1.535       .  S
C681       C1988   1.479       .  S
C682        H689   1.086       .  S
C682        C683   1.369       .  D
C683        C684   1.536       .  S
C683       C1922   1.445       .  S
C684        C688   1.533       .  S
C684        C686   1.536       .  S
C684        H690   1.112       .  S
C685        H691   1.087       .  S
C685        C686   1.362       .  D
C686       C1515   1.444       .  S
C687        H692   1.086       .  S
C687        C688   1.369       .  D
C688       C1514   1.443       .  S
O693       Cu701   1.987       .  S
O693        C703   1.277       .  A
O694       Cu701   1.996   1_556  S
O694        C704   1.275       .  A
O695       Cu701   1.995       .  S
O695        C705   1.273       .  A
O696       Cu701   1.980   1_556  S
O696        C706   1.276       .  A
O697       Cu702   2.029   1_556  S
O697        C706   1.280       .  A
O698       Cu702   2.034       .  S
O698        C705   1.281       .  A
O699       Cu702   2.015   1_556  S
O699        C704   1.277       .  A
O700       Cu702   2.004       .  S
O700        C703   1.277       .  A
Cu701      Cu702   2.375       .  S
C703       C1502   1.470       .  S
C704       C1513   1.434       .  S
C705       C1511   1.440       .  S
C706       C1531   1.479       .  S
O707       Cu715   2.007   1_455  S
O707        C717   1.278       .  A
O708       Cu715   2.018       .  S
O708        C718   1.278       .  A
O709       Cu715   2.033   1_455  S
O709        C719   1.279       .  A
O710       Cu715   2.022       .  S
O710        C720   1.280       .  A
O711       Cu716   2.003       .  S
O711        C720   1.278       .  A
O712       Cu716   2.017   1_455  S
O712        C719   1.277       .  A
O713       Cu716   1.996       .  S
O713        C718   1.274       .  A
O714       Cu716   1.980   1_455  S
O714        C717   1.276       .  A
Cu715      Cu716   2.374       .  S
C717       C1505   1.469       .  S
C718       C1550   1.435       .  S
C719       C1556   1.449       .  S
C720       C1518   1.484       .  S
C721        C722   1.524       .  S
C721        C727   1.534       .  S
C721        C725   1.538       .  S
C721       C1512   1.474       .  S
C722        H729   1.088       .  S
C722        C723   1.360       .  D
C723        C724   1.549       .  S
C723       C1934   1.447       .  S
C724        C728   1.548       .  S
C724        C726   1.549       .  S
C724        H730   1.111       .  S
C725        H731   1.086       .  S
C725        C726   1.369       .  D
C726       C1499   1.460       .  S
C727        H732   1.087       .  S
C727        C728   1.364       .  D
C728       C1553   1.451       .  S
O733       Cu741   2.005   1_556  S
O733        C743   1.278       .  A
O734       Cu741   2.020       .  S
O734        C744   1.277       .  A
O735       Cu741   2.033   1_556  S
O735        C745   1.280       .  A
O736       Cu741   2.017       .  S
O736        C746   1.279       .  A
O737       Cu742   1.990       .  S
O737        C746   1.276       .  A
O738       Cu742   2.010   1_556  S
O738        C745   1.275       .  A
O739       Cu742   2.020       .  S
O739        C744   1.278       .  A
O740       Cu742   2.009   1_556  S
O740        C743   1.279       .  A
Cu741      Cu742   2.373       .  S
C743       C1490   1.479       .  S
C744       C1975   1.446       .  S
C745       C1874   1.446       .  S
C746       C1480   1.478       .  S
O747       Cu755   1.993       .  S
O747        C757   1.276       .  A
O748       Cu755   2.005   1_455  S
O748        C758   1.275       .  A
O749       Cu755   2.007       .  S
O749        C759   1.277       .  A
O750       Cu755   2.005   1_455  S
O750        C760   1.278       .  A
O751       Cu756   2.010   1_455  S
O751        C760   1.278       .  A
O752       Cu756   2.018       .  S
O752        C759   1.277       .  A
O753       Cu756   2.029   1_455  S
O753        C758   1.279       .  A
O754       Cu756   2.014       .  S
O754        C757   1.280       .  A
Cu755      Cu756   2.374       .  S
C757       C1493   1.478       .  S
C758       C1947   1.441       .  S
C759       C1910   1.439       .  S
C760       C1470   1.481       .  S
O761       Cu769   2.013   1_455  S
O761        C771   1.277       .  A
O762       Cu769   2.005       .  S
O762        C772   1.277       .  A
O763       Cu769   2.011   1_455  S
O763        C773   1.279       .  A
O764       Cu769   2.023       .  S
O764        C774   1.278       .  A
O765       Cu770   2.019       .  S
O765        C774   1.277       .  A
O766       Cu770   2.003   1_455  S
O766        C773   1.278       .  A
O767       Cu770   2.000       .  S
O767        C772   1.278       .  A
O768       Cu770   2.018   1_455  S
O768        C771   1.277       .  A
Cu769      Cu770   2.374       .  S
C771       C1466   1.442       .  S
C772       C1483   1.477       .  S
C773       C1459   1.479       .  S
C774       C1467   1.445       .  S
C775        C776   1.537       .  S
C775        C781   1.538       .  S
C775        C779   1.531       .  S
C775       C1452   1.479       .  S
C776        H783   1.086       .  S
C776        C777   1.368       .  D
C777        C778   1.548       .  S
C777       C1974   1.455       .  S
C778        C782   1.546       .  S
C778        C780   1.547       .  S
C778        H784   1.111       .  S
C779        H785   1.087       .  S
C779        C780   1.362       .  D
C780       C1468   1.451       .  S
C781        H786   1.087       .  S
C781        C782   1.367       .  D
C782       C1453   1.459       .  S
O787       Cu795   2.012       .  S
O787        C797   1.279       .  A
O788       Cu795   2.020   1_556  S
O788        C798   1.277       .  A
O789       Cu795   2.022       .  S
O789        C799   1.278       .  A
O790       Cu795   2.014   1_556  S
O790        C800   1.279       .  A
O791       Cu796   2.005   1_556  S
O791        C800   1.278       .  A
O792       Cu796   2.015       .  S
O792        C799   1.277       .  A
O793       Cu796   2.008   1_556  S
O793        C798   1.277       .  A
O794       Cu796   2.003       .  S
O794        C797   1.278       .  A
Cu795      Cu796   2.374       .  S
C797       C1456   1.480       .  S
C798       C1450   1.440       .  S
C799       C1448   1.443       .  S
C800       C1473   1.482       .  S
C801        C802   1.539       .  S
C801        C807   1.528       .  S
C801        C805   1.527       .  S
C801       C1445   1.468       .  S
C802        H809   1.086       .  S
C802        C803   1.368       .  D
C803        C804   1.543       .  S
C803       C1560   1.450       .  S
C804        C808   1.545       .  S
C804        C806   1.547       .  S
C804        H810   1.111       .  S
C805        H811   1.087       .  S
C805        C806   1.362       .  D
C806       C1946   1.447       .  S
C807        H812   1.088       .  S
C807        C808   1.360       .  D
C808       C1449   1.446       .  S
C813        C814   1.533       .  S
C813        C819   1.538       .  S
C813        C817   1.530       .  S
C813       C1439   1.478       .  S
C814        H821   1.087       .  S
C814        C815   1.367       .  D
C815        C816   1.546       .  S
C815       C1442   1.453       .  S
C816        C820   1.543       .  S
C816        C818   1.548       .  S
C816        H822   1.111       .  S
C817        H823   1.087       .  S
C817        C818   1.360       .  D
C818       C1444   1.450       .  S
C819        H824   1.086       .  S
C819        C820   1.370       .  D
C820       C1942   1.453       .  S
C825        C826   1.537       .  S
C825        C831   1.527       .  S
C825        C829   1.530       .  S
C825       C1437   1.473       .  S
C826        H833   1.087       .  S
C826        C827   1.368       .  D
C827        C828   1.542       .  S
C827       C1905   1.451       .  S
C828        C832   1.547       .  S
C828        C830   1.547       .  S
C828        H834   1.111       .  S
C829        H835   1.087       .  S
C829        C830   1.364       .  D
C830       C1435   1.449       .  S
C831        H836   1.088       .  S
C831        C832   1.362       .  D
C832       C2004   1.447       .  S
O837       Cu845   1.986       .  S
O837        C847   1.277       .  A
O838       Cu845   2.002   1_455  S
O838        C848   1.275       .  A
O839       Cu845   2.010       .  S
O839        C849   1.276       .  A
O840       Cu845   1.998   1_455  S
O840        C850   1.278       .  A
O841       Cu846   2.010   1_455  S
O841        C850   1.278       .  A
O842       Cu846   2.028       .  S
O842        C849   1.279       .  A
O843       Cu846   2.030   1_455  S
O843        C848   1.280       .  A
O844       Cu846   2.024       .  S
O844        C847   1.279       .  A
Cu845      Cu846   2.374       .  S
C847       C1426   1.478       .  S
C848       C1966   1.442       .  S
C849       C1886   1.444       .  S
C850       C1416   1.478       .  S
O851       Cu859   2.031   1_565  S
O851        C861   1.280       .  A
O852       Cu859   2.041       .  S
O852        C862   1.281       .  A
O853       Cu859   2.036   1_565  S
O853        C863   1.280       .  A
O854       Cu859   2.032       .  S
O854        C864   1.280       .  A
O855       Cu860   1.994       .  S
O855        C864   1.278       .  A
O856       Cu860   1.999   1_565  S
O856        C863   1.274       .  A
O857       Cu860   1.994       .  S
O857        C862   1.273       .  A
O858       Cu860   1.980   1_565  S
O858        C861   1.276       .  A
Cu859      Cu860   2.372       .  S
C861       C1429   1.479       .  S
C862       C2005   1.442       .  S
C863       C1858   1.443       .  S
C864       C1406   1.486       .  S
C865        C866   1.525       .  S
C865        C871   1.539       .  S
C865        C869   1.534       .  S
C865       C1403   1.477       .  S
C866        H873   1.088       .  S
C866        C867   1.360       .  D
C867        C868   1.561       .  S
C867       C1964   1.461       .  S
C868        C872   1.555       .  S
C868        C870   1.550       .  S
C868        H874   1.111       .  S
C869        H875   1.087       .  S
C869        C870   1.365       .  D
C870       C1402   1.457       .  S
C871        H876   1.087       .  S
C871        C872   1.370       .  D
C872       C1860   1.467       .  S
O877       Cu885   1.987       .  S
O877        C887   1.276       .  A
O878       Cu885   2.001   1_545  S
O878        C888   1.275       .  A
O879       Cu885   2.017       .  S
O879        C889   1.277       .  A
O880       Cu885   2.002   1_545  S
O880        C890   1.278       .  A
O881       Cu886   2.024   1_545  S
O881        C890   1.279       .  A
O882       Cu886   2.036       .  S
O882        C889   1.280       .  A
O883       Cu886   2.031   1_545  S
O883        C888   1.279       .  A
O884       Cu886   2.019       .  S
O884        C887   1.279       .  A
Cu885      Cu886   2.373       .  S
C887       C1419   1.477       .  S
C888       C1399   1.442       .  S
C889       C1401   1.450       .  S
C890       C1390   1.484       .  S
O891       Cu899   2.035       .  S
O891        C901   1.280       .  A
O892       Cu899   2.040   1_455  S
O892        C902   1.281       .  A
O893       Cu899   2.032       .  S
O893        C903   1.279       .  A
O894       Cu899   2.026   1_455  S
O894        C904   1.280       .  A
O895       Cu900   1.995   1_455  S
O895        C904   1.277       .  A
O896       Cu900   2.001       .  S
O896        C903   1.275       .  A
O897       Cu900   2.004   1_455  S
O897        C902   1.275       .  A
O898       Cu900   1.991       .  S
O898        C901   1.277       .  A
Cu899      Cu900   2.372       .  S
C901       C1409   1.486       .  S
C902       C1441   1.446       .  S
C903       C1436   1.442       .  S
C904       C1393   1.483       .  S
C905        C906   1.531       .  S
C905        C911   1.542       .  S
C905        C909   1.530       .  S
C905       C1388   1.478       .  S
C906        H913   1.087       .  S
C906        C907   1.363       .  D
C907        C908   1.545       .  S
C907       C1400   1.449       .  S
C908        C912   1.543       .  S
C908        C910   1.546       .  S
C908        H914   1.111       .  S
C909        H915   1.087       .  S
C909        C910   1.363       .  D
C910       C1440   1.450       .  S
C911        H916   1.087       .  S
C911        C912   1.370       .  D
C912       C1993   1.456       .  S
O917       Cu925   2.010   1_545  S
O917        C927   1.279       .  A
O918       Cu925   2.019       .  S
O918        C928   1.278       .  A
O919       Cu925   2.014   1_545  S
O919        C929   1.276       .  A
O920       Cu925   2.002       .  S
O920        C930   1.277       .  A
O921       Cu926   2.004       .  S
O921        C930   1.279       .  A
O922       Cu926   2.015   1_545  S
O922        C929   1.278       .  A
O923       Cu926   2.006       .  S
O923        C928   1.276       .  A
O924       Cu926   2.001   1_545  S
O924        C927   1.277       .  A
Cu925      Cu926   2.374       .  S
C927       C1368   1.479       .  S
C928       C1894   1.439       .  S
C929       C1961   1.440       .  S
C930       C1378   1.477       .  S
O931       Cu939   2.021   1_455  S
O931        C941   1.278       .  A
O932       Cu939   2.011       .  S
O932        C942   1.278       .  A
O933       Cu939   2.019   1_455  S
O933        C943   1.279       .  A
O934       Cu939   2.026       .  S
O934        C944   1.279       .  A
O935       Cu940   2.019       .  S
O935        C944   1.277       .  A
O936       Cu940   2.007   1_455  S
O936        C943   1.279       .  A
O937       Cu940   1.995       .  S
O937        C942   1.277       .  A
O938       Cu940   2.008   1_455  S
O938        C941   1.276       .  A
Cu939      Cu940   2.373       .  S
C941       C2016   1.441       .  S
C942       C1381   1.477       .  S
C943       C1358   1.484       .  S
C944       C1355   1.446       .  S
O945       Cu953   2.016   1_455  S
O945        C955   1.278       .  A
O946       Cu953   2.008       .  S
O946        C956   1.278       .  A
O947       Cu953   2.016   1_455  S
O947        C957   1.279       .  A
O948       Cu953   2.021       .  S
O948        C958   1.279       .  A
O949       Cu954   2.013       .  S
O949        C958   1.276       .  A
O950       Cu954   1.998   1_455  S
O950        C957   1.278       .  A
O951       Cu954   2.004       .  S
O951        C956   1.278       .  A
O952       Cu954   2.015   1_455  S
O952        C955   1.277       .  A
Cu953      Cu954   2.374       .  S
C955       C1351   1.441       .  S
C956       C1371   1.479       .  S
C957       C1342   1.480       .  S
C958       C1353   1.442       .  S
C959        C960   1.525       .  S
C959        C965   1.534       .  S
C959        C963   1.528       .  S
C959       C1340   1.468       .  S
C960        H967   1.088       .  S
C960        C961   1.363       .  D
C961        C962   1.548       .  S
C961       C1960   1.447       .  S
C962        C966   1.547       .  S
C962        C964   1.549       .  S
C962        H968   1.111       .  S
C963        H969   1.087       .  S
C963        C964   1.362       .  D
C964       C1354   1.448       .  S
C965        H970   1.087       .  S
C965        C966   1.366       .  D
C966       C1451   1.452       .  S
O971       Cu979   2.009   1_545  S
O971        C981   1.277       .  A
O972       Cu979   2.018       .  S
O972        C982   1.278       .  A
O973       Cu979   2.024   1_545  S
O973        C983   1.278       .  A
O974       Cu979   2.008       .  S
O974        C984   1.279       .  A
O975       Cu980   2.023       .  S
O975        C984   1.279       .  A
O976       Cu980   2.034   1_545  S
O976        C983   1.280       .  A
O977       Cu980   2.028       .  S
O977        C982   1.278       .  A
O978       Cu980   2.008   1_545  S
O978        C981   1.279       .  A
Cu979      Cu980   2.371       .  S
C981       C1345   1.481       .  S
C982       C1338   1.447       .  S
C983       C1335   1.452       .  S
C984       C1361   1.486       .  S
C985        C986   1.531       .  S
C985        C991   1.524       .  S
C985        C989   1.531       .  S
C985       C1333   1.470       .  S
C986        H993   1.087       .  S
C986        C987   1.365       .  D
C987        C988   1.556       .  S
C987       C1582   1.460       .  S
C988        C992   1.559       .  S
C988        C990   1.550       .  S
C988        H994   1.111       .  S
C989        H995   1.087       .  S
C989        C990   1.363       .  D
C990       C1337   1.453       .  S
C991        H996   1.087       .  S
C991        C992   1.362       .  D
C992       C2013   1.456       .  S
C997        C998   1.528       .  S
C997       C1003   1.537       .  S
C997       C1001   1.524       .  S
C997       C1332   1.467       .  S
C998       H1005   1.087       .  S
C998        C999   1.362       .  D
C999       C1000   1.548       .  S
C999       C1352   1.447       .  S
C1000      C1004   1.546       .  S
C1000      C1002   1.548       .  S
C1000      H1006   1.111       .  S
C1001      H1007   1.088       .  S
C1001      C1002   1.361       .  D
C1002      C1327   1.446       .  S
C1003      H1008   1.087       .  S
C1003      C1004   1.367       .  D
C1004      C1329   1.453       .  S
C1009      C1010   1.533       .  S
C1009      C1015   1.532       .  S
C1009      C1013   1.532       .  S
C1009      C1328   1.475       .  S
C1010      H1017   1.087       .  S
C1010      C1011   1.361       .  D
C1011      C1012   1.550       .  S
C1011      C1325   1.454       .  S
C1012      C1016   1.552       .  S
C1012      C1014   1.551       .  S
C1012      H1018   1.111       .  S
C1013      H1019   1.086       .  S
C1013      C1014   1.365       .  D
C1014      C1323   1.454       .  S
C1015      H1020   1.087       .  S
C1015      C1016   1.367       .  D
C1016      C1336   1.459       .  S
O1021     Cu1029   1.994       .  S
O1021      C1031   1.277       .  A
O1022     Cu1029   2.004       .  S
O1022      C1032   1.276       .  A
O1023     Cu1029   2.007       .  S
O1023      C1033   1.276       .  A
O1024     Cu1029   1.997       .  S
O1024      C1034   1.277       .  A
O1025     Cu1030   2.017       .  S
O1025      C1034   1.279       .  A
O1026     Cu1030   2.023       .  S
O1026      C1033   1.279       .  A
O1027     Cu1030   2.017       .  S
O1027      C1032   1.277       .  A
O1028     Cu1030   2.001       .  S
O1028      C1031   1.278       .  A
Cu1029    Cu1030   2.375       .  S
C1031      C1757   1.473       .  S
C1032      C1334   1.436       .  S
C1033      C1404   1.442       .  S
C1034      C1314   1.480       .  S
O1035     Cu1043   1.992       .  S
O1035      C1045   1.274       .  A
O1036     Cu1043   1.985       .  S
O1036      C1046   1.277       .  A
O1037     Cu1043   1.988       .  S
O1037      C1047   1.277       .  A
O1038     Cu1043   2.005       .  S
O1038      C1048   1.275       .  A
O1039     Cu1044   2.034       .  S
O1039      C1048   1.281       .  A
O1040     Cu1044   2.025       .  S
O1040      C1047   1.280       .  A
O1041     Cu1044   2.011       .  S
O1041      C1046   1.278       .  A
O1042     Cu1044   2.014       .  S
O1042      C1045   1.277       .  A
Cu1043    Cu1044   2.375       .  S
C1045      C1331   1.431       .  S
C1046      C1784   1.473       .  S
C1047      C1304   1.480       .  S
C1048      C1443   1.444       .  S
O1049     Cu1057   2.022       .  S
O1049      C1059   1.280       .  A
O1050     Cu1057   2.041       .  S
O1050      C1060   1.282       .  A
O1051     Cu1057   2.014       .  S
O1051      C1061   1.277       .  A
O1052     Cu1057   2.001       .  S
O1052      C1062   1.276       .  A
O1053     Cu1058   2.004       .  S
O1053      C1062   1.279       .  A
O1054     Cu1058   2.018       .  S
O1054      C1061   1.278       .  A
O1055     Cu1058   2.007       .  S
O1055      C1060   1.275       .  A
O1056     Cu1058   1.988       .  S
O1056      C1059   1.276       .  A
Cu1057    Cu1058   2.373       .  S
C1059      C1797   1.479       .  S
C1060      C1326   1.448       .  S
C1061      C1387   1.443       .  S
C1062      C1294   1.474       .  S
O1063     Cu1071   2.008       .  S
O1063      C1073   1.276       .  A
O1064     Cu1071   2.003       .  S
O1064      C1074   1.279       .  A
O1065     Cu1071   1.997       .  S
O1065      C1075   1.277       .  A
O1066     Cu1071   2.003       .  S
O1066      C1076   1.276       .  A
O1067     Cu1072   2.012       .  S
O1067      C1076   1.277       .  A
O1068     Cu1072   2.001       .  S
O1068      C1075   1.278       .  A
O1069     Cu1072   2.017       .  S
O1069      C1074   1.279       .  A
O1070     Cu1072   2.018       .  S
O1070      C1073   1.278       .  A
Cu1071    Cu1072   2.375       .  S
C1073      C1438   1.439       .  S
C1074      C1284   1.483       .  S
C1075      C1827   1.474       .  S
C1076      C1339   1.434       .  S
C1077      C1078   1.537       .  S
C1077      C1083   1.538       .  S
C1077      C1081   1.530       .  S
C1077      C1330   1.480       .  S
C1078      H1085   1.086       .  S
C1078      C1079   1.367       .  D
C1079      C1080   1.538       .  S
C1079      C1282   1.448       .  S
C1080      C1084   1.548       .  S
C1080      C1082   1.547       .  S
C1080      H1086   1.111       .  S
C1081      H1087   1.087       .  S
C1081      C1082   1.362       .  D
C1082      C1465   1.449       .  S
C1083      H1088   1.086       .  S
C1083      C1084   1.369       .  D
C1084      C1279   1.459       .  S
C1089      C1090   1.536       .  S
C1089      C1095   1.529       .  S
C1089      C1093   1.532       .  S
C1089      C1447   1.478       .  S
C1090      H1097   1.087       .  S
C1090      C1091   1.367       .  D
C1091      C1092   1.552       .  S
C1091      C1280   1.459       .  S
C1092      C1096   1.559       .  S
C1092      C1094   1.556       .  S
C1092      H1098   1.111       .  S
C1093      H1099   1.087       .  S
C1093      C1094   1.365       .  D
C1094      C1278   1.463       .  S
C1095      H1100   1.087       .  S
C1095      C1096   1.363       .  D
C1096      C1275   1.462       .  S
O1101     Cu1109   2.023       .  S
O1101      C1111   1.278       .  A
O1102     Cu1109   2.014       .  S
O1102      C1112   1.280       .  A
O1103     Cu1109   1.990       .  S
O1103      C1113   1.276       .  A
O1104     Cu1109   2.008       .  S
O1104      C1114   1.275       .  A
O1105     Cu1110   2.051       .  S
O1105      C1114   1.282       .  A
O1106     Cu1110   2.029       .  S
O1106      C1113   1.280       .  A
O1107     Cu1110   2.032       .  S
O1107      C1112   1.280       .  A
O1108     Cu1110   2.046       .  S
O1108      C1111   1.281       .  A
Cu1109    Cu1110   2.369       .  S
C1111      C1277   1.457       .  S
C1112      C1707   1.491       .  S
C1113      C1266   1.482       .  S
C1114      C1500   1.453       .  S
O1115     Cu1123   2.014       .  S
O1115      C1125   1.276       .  A
O1116     Cu1123   1.999       .  S
O1116      C1126   1.278       .  A
O1117     Cu1123   1.998       .  S
O1117      C1127   1.278       .  A
O1118     Cu1123   2.008       .  S
O1118      C1128   1.276       .  A
O1119     Cu1124   2.038       .  S
O1119      C1128   1.280       .  A
O1120     Cu1124   2.025       .  S
O1120      C1127   1.280       .  A
O1121     Cu1124   2.028       .  S
O1121      C1126   1.280       .  A
O1122     Cu1124   2.043       .  S
O1122      C1125   1.281       .  A
Cu1123    Cu1124   2.371       .  S
C1125      C1454   1.452       .  S
C1126      C1849   1.485       .  S
C1127      C1287   1.483       .  S
C1128      C1552   1.448       .  S
O1129     Cu1137   2.018       .  S
O1129      C1139   1.277       .  A
O1130     Cu1137   2.006       .  S
O1130      C1140   1.278       .  A
O1131     Cu1137   2.004       .  S
O1131      C1141   1.278       .  A
O1132     Cu1137   2.011       .  S
O1132      C1142   1.277       .  A
O1133     Cu1138   2.002       .  S
O1133      C1142   1.275       .  A
O1134     Cu1138   1.993       .  S
O1134      C1141   1.277       .  A
O1135     Cu1138   2.000       .  S
O1135      C1140   1.278       .  A
O1136     Cu1138   2.008       .  S
O1136      C1139   1.276       .  A
Cu1137    Cu1138   2.376       .  S
C1139      C1516   1.438       .  S
C1140      C1256   1.477       .  S
C1141      C1697   1.474       .  S
C1142      C1446   1.434       .  S
O1143     Cu1151   2.026       .  S
O1143      C1153   1.279       .  A
O1144     Cu1151   2.030       .  S
O1144      C1154   1.280       .  A
O1145     Cu1151   2.022       .  S
O1145      C1155   1.279       .  A
O1146     Cu1151   2.020       .  S
O1146      C1156   1.278       .  A
O1147     Cu1152   1.993       .  S
O1147      C1156   1.274       .  A
O1148     Cu1152   1.988       .  S
O1148      C1155   1.277       .  A
O1149     Cu1152   2.005       .  S
O1149      C1154   1.279       .  A
O1150     Cu1152   2.007       .  S
O1150      C1153   1.276       .  A
Cu1151    Cu1152   2.373       .  S
C1153      C1281   1.441       .  S
C1154      C1767   1.489       .  S
C1155      C1307   1.480       .  S
C1156      C1557   1.433       .  S
C1157      C1158   1.540       .  S
C1157      C1163   1.527       .  S
C1157      C1161   1.533       .  S
C1157      C1254   1.477       .  S
C1158      H1165   1.087       .  S
C1158      C1159   1.369       .  D
C1159      C1160   1.544       .  S
C1159      C1324   1.455       .  S
C1160      C1164   1.556       .  S
C1160      C1162   1.545       .  S
C1160      H1166   1.111       .  S
C1161      H1167   1.087       .  S
C1161      C1162   1.364       .  D
C1162      C1578   1.449       .  S
C1163      H1168   1.088       .  S
C1163      C1164   1.363       .  D
C1164      C1251   1.462       .  S
C1169      C1170   1.528       .  S
C1169      C1175   1.536       .  S
C1169      C1173   1.531       .  S
C1169      C1250   1.478       .  S
C1170      H1177   1.088       .  S
C1170      C1171   1.364       .  D
C1171      C1172   1.558       .  S
C1171      C1252   1.462       .  S
C1172      C1176   1.556       .  S
C1172      C1174   1.553       .  S
C1172      H1178   1.111       .  S
C1173      H1179   1.087       .  S
C1173      C1174   1.364       .  D
C1174      C1563   1.457       .  S
C1175      H1180   1.087       .  S
C1175      C1176   1.367       .  D
C1176      C1276   1.463       .  S
O1181     Cu1189   2.023       .  S
O1181      C1191   1.278       .  A
O1182     Cu1189   2.013       .  S
O1182      C1192   1.279       .  A
O1183     Cu1189   2.005       .  S
O1183      C1193   1.278       .  A
O1184     Cu1189   2.012       .  S
O1184      C1194   1.277       .  A
O1185     Cu1190   2.018       .  S
O1185      C1194   1.277       .  A
O1186     Cu1190   2.006       .  S
O1186      C1193   1.278       .  A
O1187     Cu1190   2.029       .  S
O1187      C1192   1.280       .  A
O1188     Cu1190   2.036       .  S
O1188      C1191   1.279       .  A
Cu1189    Cu1190   2.372       .  S
C1191      C1561   1.451       .  S
C1192      C1677   1.490       .  S
C1193      C1259   1.479       .  S
C1194      C1632   1.441       .  S
O1195     Cu1203   2.005       .  S
O1195      C1205   1.276       .  A
O1196     Cu1203   2.002       .  S
O1196      C1206   1.278       .  A
O1197     Cu1203   1.986       .  S
O1197      C1207   1.276       .  A
O1198     Cu1203   2.002       .  S
O1198      C1208   1.275       .  A
O1199     Cu1204   2.028       .  S
O1199      C1208   1.279       .  A
O1200     Cu1204   2.016       .  S
O1200      C1207   1.279       .  A
O1201     Cu1204   2.021       .  S
O1201      C1206   1.279       .  A
O1202     Cu1204   2.025       .  S
O1202      C1205   1.279       .  A
Cu1203    Cu1204   2.374       .  S
C1205      C1253   1.442       .  S
C1206      C1814   1.482       .  S
C1207      C1297   1.474       .  S
C1208      C1672   1.440       .  S
O1209     Cu1217   2.021       .  S
O1209      C1219   1.278       .  A
O1210     Cu1217   2.009       .  S
O1210      C1220   1.278       .  A
O1211     Cu1217   2.017       .  S
O1211      C1221   1.279       .  A
O1212     Cu1217   2.025       .  S
O1212      C1222   1.279       .  A
O1213     Cu1218   2.016       .  S
O1213      C1222   1.277       .  A
O1214     Cu1218   2.002       .  S
O1214      C1221   1.278       .  A
O1215     Cu1218   2.001       .  S
O1215      C1220   1.278       .  A
O1216     Cu1218   2.014       .  S
O1216      C1219   1.277       .  A
Cu1217    Cu1218   2.373       .  S
C1219      C1249   1.443       .  S
C1220      C1727   1.479       .  S
C1221      C1269   1.482       .  S
C1222      C1616   1.445       .  S
O1223     Cu1231   2.010       .  S
O1223      C1233   1.276       .  A
O1224     Cu1231   1.998       .  S
O1224      C1234   1.278       .  A
O1225     Cu1231   2.010       .  S
O1225      C1235   1.278       .  A
O1226     Cu1231   2.022       .  S
O1226      C1236   1.278       .  A
O1227     Cu1232   2.015       .  S
O1227      C1236   1.277       .  A
O1228     Cu1232   1.999       .  S
O1228      C1235   1.278       .  A
O1229     Cu1232   2.009       .  S
O1229      C1234   1.278       .  A
O1230     Cu1232   2.012       .  S
O1230      C1233   1.277       .  A
Cu1231    Cu1232   2.374       .  S
C1233      C1580   1.438       .  S
C1234      C1737   1.478       .  S
C1235      C1317   1.478       .  S
C1236      C1666   1.443       .  S
C1237      C1238   1.538       .  S
C1237      C1243   1.534       .  S
C1237      C1241   1.535       .  S
C1237      C1548   1.479       .  S
C1238      H1245   1.086       .  S
C1238      C1239   1.369       .  D
C1239      C1240   1.541       .  S
C1239      C1888   1.450       .  S
C1240      C1244   1.538       .  S
C1240      C1242   1.545       .  S
C1240      H1246   1.111       .  S
C1241      H1247   1.087       .  S
C1241      C1242   1.363       .  D
C1242      C1356   1.453       .  S
C1243      H1248   1.086       .  S
C1243      C1244   1.366       .  D
C1244      C1834   1.445       .  S
C1249      C1250   1.211       .  T
C1251      C1252   1.219       .  T
C1253      C1254   1.211       .  T
C1255      C1256   1.405       .  A
C1255      C1260   1.396       .  A
C1255      H1261   1.082       .  S
C1256      C1257   1.405       .  A
C1257      C1258   1.397       .  A
C1257      H1262   1.082       .  S
C1258      C1259   1.406       .  A
C1258      H1263   1.082       .  S
C1259      C1260   1.405       .  A
C1260      H1264   1.082       .  S
C1265      C1266   1.406       .  A
C1265      C1270   1.393       .  A
C1265      H1271   1.082       .  S
C1266      C1267   1.406       .  A
C1267      C1268   1.404       .  A
C1267      H1272   1.082       .  S
C1268      C1269   1.408       .  A
C1268      H1273   1.082       .  S
C1269      C1270   1.404       .  A
C1270      H1274   1.082       .  S
C1275      C1276   1.219       .  T
C1277      C1278   1.219       .  T
C1279      C1280   1.216       .  T
C1281      C1282   1.210       .  T
C1283      C1284   1.408       .  A
C1283      C1288   1.404       .  A
C1283      H1289   1.082       .  S
C1284      C1285   1.404       .  A
C1285      C1286   1.393       .  A
C1285      H1290   1.082       .  S
C1286      C1287   1.405       .  A
C1286      H1291   1.082       .  S
C1287      C1288   1.407       .  A
C1288      H1292   1.082       .  S
C1293      C1294   1.401       .  A
C1293      C1298   1.392       .  A
C1293      H1299   1.083       .  S
C1294      C1295   1.407       .  A
C1295      C1296   1.400       .  A
C1295      H1300   1.082       .  S
C1296      C1297   1.404       .  A
C1296      H1301   1.083       .  S
C1297      C1298   1.405       .  A
C1298      H1302   1.082       .  S
C1303      C1304   1.407       .  A
C1303      C1308   1.405       .  A
C1303      H1309   1.082       .  S
C1304      C1305   1.404       .  A
C1305      C1306   1.389       .  A
C1305      H1310   1.082       .  S
C1306      C1307   1.403       .  A
C1306      H1311   1.082       .  S
C1307      C1308   1.408       .  A
C1308      H1312   1.082       .  S
C1313      C1314   1.405       .  A
C1313      C1318   1.393       .  A
C1313      H1319   1.082       .  S
C1314      C1315   1.406       .  A
C1315      C1316   1.401       .  A
C1315      H1320   1.082       .  S
C1316      C1317   1.406       .  A
C1316      H1321   1.082       .  S
C1317      C1318   1.404       .  A
C1318      H1322   1.082       .  S
C1323      C1324   1.214       .  T
C1325      C1326   1.214       .  T
C1327      C1328   1.209       .  T
C1329      C1330   1.213       .  T
C1331      C1332   1.205       .  T
C1333      C1334   1.207       .  T
C1335      C1336   1.216       .  T
C1337      C1338   1.213       .  T
C1339      C1340   1.206       .  T
C1341      C1342   1.405       .  A
C1341      C1346   1.394       .  A
C1341      H1347   1.082       .  S
C1342      C1343   1.406       .  A
C1343      C1344   1.402       .  A
C1343      H1348   1.082       .  S
C1344      C1345   1.408       .  A
C1344      H1349   1.082       .  S
C1345      C1346   1.404       .  A
C1346      H1350   1.082       .  S
C1351      C1352   1.210       .  T
C1353      C1354   1.210       .  T
C1355      C1356   1.213       .  T
C1357      C1358   1.408       .  A
C1357      C1362   1.404       .  A
C1357      H1363   1.082       .  S
C1358      C1359   1.405       .  A
C1359      C1360   1.395       .  A
C1359      H1364   1.083       .  S
C1360      C1361   1.405       .  A
C1360      H1365   1.082       .  S
C1361      C1362   1.408       .  A
C1362      H1366   1.083       .  S
C1367      C1368   1.407       .  A
C1367      C1372   1.398       .  A
C1367      H1373   1.082       .  S
C1368      C1369   1.404       .  A
C1369      C1370   1.396       .  A
C1369      H1374   1.082       .  S
C1370      C1371   1.405       .  A
C1370      H1375   1.082       .  S
C1371      C1372   1.405       .  A
C1372      H1376   1.082       .  S
C1377      C1378   1.407       .  A
C1377      C1382   1.399       .  A
C1377      H1383   1.082       .  S
C1378      C1379   1.403       .  A
C1379      C1380   1.394       .  A
C1379      H1384   1.082       .  S
C1380      C1381   1.405       .  A
C1380      H1385   1.082       .  S
C1381      C1382   1.405       .  A
C1382      H1386   1.082       .  S
C1387      C1388   1.212       .  T
C1389      C1390   1.408       .  A
C1389      C1394   1.405       .  A
C1389      H1395   1.083       .  S
C1390      C1391   1.404       .  A
C1391      C1392   1.393       .  A
C1391      H1396   1.082       .  S
C1392      C1393   1.405       .  A
C1392      H1397   1.083       .  S
C1393      C1394   1.407       .  A
C1394      H1398   1.082       .  S
C1399      C1400   1.210       .  T
C1401      C1402   1.215       .  T
C1403      C1404   1.211       .  T
C1405      C1406   1.404       .  A
C1405      C1410   1.389       .  A
C1405      H1411   1.082       .  S
C1406      C1407   1.409       .  A
C1407      C1408   1.409       .  A
C1407      H1412   1.082       .  S
C1408      C1409   1.409       .  A
C1408      H1413   1.082       .  S
C1409      C1410   1.404       .  A
C1410      H1414   1.082       .  S
C1415      C1416   1.403       .  A
C1415      C1420   1.392       .  A
C1415      H1421   1.082       .  S
C1416      C1417   1.407       .  A
C1417      C1418   1.401       .  A
C1417      H1422   1.082       .  S
C1418      C1419   1.405       .  A
C1418      H1423   1.082       .  S
C1419      C1420   1.405       .  A
C1420      H1424   1.082       .  S
C1425      C1426   1.408       .  A
C1425      C1430   1.407       .  A
C1425      H1431   1.082       .  S
C1426      C1427   1.402       .  A
C1427      C1428   1.387       .  A
C1427      H1432   1.082       .  S
C1428      C1429   1.403       .  A
C1428      H1433   1.082       .  S
C1429      C1430   1.407       .  A
C1430      H1434   1.082       .  S
C1435      C1436   1.210       .  T
C1437      C1438   1.209       .  T
C1439      C1440   1.211       .  T
C1441      C1442   1.213       .  T
C1443      C1444   1.211       .  T
C1445      C1446   1.206       .  T
C1447      C1448   1.211       .  T
C1449      C1450   1.209       .  T
C1451      C1452   1.212       .  T
C1453      C1454   1.216       .  T
C1455      C1456   1.406       .  A
C1455      C1460   1.399       .  A
C1455      H1461   1.082       .  S
C1456      C1457   1.405       .  A
C1457      C1458   1.396       .  A
C1457      H1462   1.082       .  S
C1458      C1459   1.405       .  A
C1458      H1463   1.082       .  S
C1459      C1460   1.405       .  A
C1460      H1464   1.082       .  S
C1465      C1466   1.210       .  T
C1467      C1468   1.212       .  T
C1469      C1470   1.405       .  A
C1469      C1474   1.397       .  A
C1469      H1475   1.083       .  S
C1470      C1471   1.406       .  A
C1471      C1472   1.400       .  A
C1471      H1476   1.082       .  S
C1472      C1473   1.406       .  A
C1472      H1477   1.083       .  S
C1473      C1474   1.406       .  A
C1474      H1478   1.082       .  S
C1479      C1480   1.405       .  A
C1479      C1484   1.400       .  A
C1479      H1485   1.083       .  S
C1480      C1481   1.405       .  A
C1481      C1482   1.392       .  A
C1481      H1486   1.082       .  S
C1482      C1483   1.403       .  A
C1482      H1487   1.083       .  S
C1483      C1484   1.407       .  A
C1484      H1488   1.082       .  S
C1489      C1490   1.404       .  A
C1489      C1494   1.396       .  A
C1489      H1495   1.082       .  S
C1490      C1491   1.407       .  A
C1491      C1492   1.398       .  A
C1491      H1496   1.082       .  S
C1492      C1493   1.404       .  A
C1492      H1497   1.082       .  S
C1493      C1494   1.406       .  A
C1494      H1498   1.082       .  S
C1499      C1500   1.217       .  T
C1501      C1502   1.402       .  A
C1501      C1506   1.388       .  A
C1501      H1507   1.082       .  S
C1502      C1503   1.406       .  A
C1503      C1504   1.399       .  A
C1503      H1508   1.082       .  S
C1504      C1505   1.404       .  A
C1504      H1509   1.082       .  S
C1505      C1506   1.403       .  A
C1506      H1510   1.082       .  S
C1511      C1512   1.209       .  T
C1513      C1514   1.206       .  T
C1515      C1516   1.207       .  T
C1517      C1518   1.405       .  A
C1517      C1522   1.395       .  A
C1517      H1523   1.083       .  S
C1518      C1519   1.407       .  A
C1519      C1520   1.403       .  A
C1519      H1524   1.082       .  S
C1520      C1521   1.406       .  A
C1520      H1525   1.083       .  S
C1521      C1522   1.406       .  A
C1522      H1526   1.082       .  S
C1527      C1528   1.402       .  A
C1527      C1532   1.388       .  A
C1527      H1533   1.082       .  S
C1528      C1529   1.408       .  A
C1529      C1530   1.405       .  A
C1529      H1534   1.082       .  S
C1530      C1531   1.407       .  A
C1530      H1535   1.082       .  S
C1531      C1532   1.404       .  A
C1532      H1536   1.082       .  S
C1537      C1538   1.406       .  A
C1537      C1542   1.391       .  A
C1537      H1543   1.081       .  S
C1538      C1539   1.407       .  A
C1539      C1540   1.406       .  A
C1539      H1544   1.083       .  S
C1540      C1541   1.410       .  A
C1540      H1545   1.082       .  S
C1541      C1542   1.402       .  A
C1542      H1546   1.083       .  S
C1547      C1548   1.212       .  T
C1549      C1550   1.207       .  T
C1551      C1552   1.214       .  T
C1553      C1554   1.211       .  T
C1555      C1556   1.214       .  T
C1557      C1558   1.205       .  T
C1559      C1560   1.211       .  T
C1561      C1562   1.215       .  T
C1563      C1564   1.216       .  T
C1565      C1566   1.211       .  T
C1567      C1568   1.403       .  A
C1567      C1572   1.394       .  A
C1567      H1573   1.082       .  S
C1568      C1569   1.406       .  A
C1569      C1570   1.396       .  A
C1569      H1574   1.082       .  S
C1570      C1571   1.404       .  A
C1570      H1575   1.082       .  S
C1571      C1572   1.405       .  A
C1572      H1576   1.082       .  S
C1577      C1578   1.210       .  T
C1579      C1580   1.209       .  T
C1581      C1582   1.217       .  T
C1583      C1584   1.209       .  T
C1585      C1586   1.407       .  A
C1585      C1590   1.402       .  A
C1585      H1591   1.082       .  S
C1586      C1587   1.406       .  A
C1587      C1588   1.400       .  A
C1587      H1592   1.082       .  S
C1588      C1589   1.407       .  A
C1588      H1593   1.082       .  S
C1589      C1590   1.407       .  A
C1590      H1594   1.082       .  S
C1595      C1596   1.404       .  A
C1595      C1600   1.393       .  A
C1595      H1601   1.082       .  S
C1596      C1597   1.407       .  A
C1597      C1598   1.400       .  A
C1597      H1602   1.082       .  S
C1598      C1599   1.405       .  A
C1598      H1603   1.082       .  S
C1599      C1600   1.406       .  A
C1600      H1604   1.082       .  S
C1605      C1606   1.408       .  A
C1605      C1610   1.402       .  A
C1605      H1611   1.082       .  S
C1606      C1607   1.405       .  A
C1607      C1608   1.398       .  A
C1607      H1612   1.082       .  S
C1608      C1609   1.407       .  A
C1608      H1613   1.082       .  S
C1609      C1610   1.406       .  A
C1610      H1614   1.082       .  S
C1615      C1616   1.213       .  T
C1617      C1618   1.404       .  A
C1617      C1622   1.389       .  A
C1617      H1623   1.082       .  S
C1618      C1619   1.406       .  A
C1619      C1620   1.402       .  A
C1619      H1624   1.082       .  S
C1620      C1621   1.407       .  A
C1620      H1625   1.082       .  S
C1621      C1622   1.403       .  A
C1622      H1626   1.082       .  S
C1627      C1628   1.212       .  T
C1629      C1630   1.211       .  T
C1631      C1632   1.210       .  T
C1633      C1634   1.404       .  A
C1633      C1638   1.393       .  A
C1633      H1639   1.082       .  S
C1634      C1635   1.408       .  A
C1635      C1636   1.405       .  A
C1635      H1640   1.082       .  S
C1636      C1637   1.407       .  A
C1636      H1641   1.082       .  S
C1637      C1638   1.405       .  A
C1638      H1642   1.082       .  S
C1643      C1644   1.403       .  A
C1643      C1648   1.393       .  A
C1643      H1649   1.082       .  S
C1644      C1645   1.406       .  A
C1645      C1646   1.398       .  A
C1645      H1650   1.082       .  S
C1646      C1647   1.404       .  A
C1646      H1651   1.082       .  S
C1647      C1648   1.406       .  A
C1648      H1652   1.082       .  S
C1653      C1654   1.408       .  A
C1653      C1658   1.408       .  A
C1653      H1659   1.082       .  S
C1654      C1655   1.404       .  A
C1655      C1656   1.392       .  A
C1655      H1660   1.083       .  S
C1656      C1657   1.405       .  A
C1656      H1661   1.082       .  S
C1657      C1658   1.409       .  A
C1658      H1662   1.082       .  S
C1663      C1664   1.208       .  T
C1665      C1666   1.210       .  T
C1667      C1668   1.217       .  T
C1669      C1670   1.213       .  T
C1671      C1672   1.209       .  T
C1673      C1674   1.406       .  A
C1673      C1678   1.399       .  A
C1673      H1679   1.082       .  S
C1674      C1675   1.408       .  A
C1675      C1676   1.405       .  A
C1675      H1680   1.082       .  S
C1676      C1677   1.408       .  A
C1676      H1681   1.083       .  S
C1677      C1678   1.406       .  A
C1678      H1682   1.083       .  S
C1683      C1684   1.405       .  A
C1683      C1688   1.399       .  A
C1683      H1689   1.082       .  S
C1684      C1685   1.408       .  A
C1685      C1686   1.403       .  A
C1685      H1690   1.082       .  S
C1686      C1687   1.406       .  A
C1686      H1691   1.082       .  S
C1687      C1688   1.407       .  A
C1688      H1692   1.082       .  S
C1693      C1694   1.406       .  A
C1693      C1698   1.397       .  A
C1693      H1699   1.082       .  S
C1694      C1695   1.403       .  A
C1695      C1696   1.393       .  A
C1695      H1700   1.082       .  S
C1696      C1697   1.404       .  A
C1696      H1701   1.082       .  S
C1697      C1698   1.405       .  A
C1698      H1702   1.082       .  S
C1703      C1704   1.406       .  A
C1703      C1708   1.397       .  A
C1703      H1709   1.082       .  S
C1704      C1705   1.409       .  A
C1705      C1706   1.408       .  A
C1705      H1710   1.083       .  S
C1706      C1707   1.409       .  A
C1706      H1711   1.083       .  S
C1707      C1708   1.405       .  A
C1708      H1712   1.083       .  S
C1713      C1714   1.406       .  A
C1713      C1718   1.403       .  A
C1713      H1719   1.083       .  S
C1714      C1715   1.404       .  A
C1715      C1716   1.390       .  A
C1715      H1720   1.082       .  S
C1716      C1717   1.403       .  A
C1716      H1721   1.082       .  S
C1717      C1718   1.408       .  A
C1718      H1722   1.082       .  S
C1723      C1724   1.405       .  A
C1723      C1728   1.401       .  A
C1723      H1729   1.082       .  S
C1724      C1725   1.405       .  A
C1725      C1726   1.393       .  A
C1725      H1730   1.082       .  S
C1726      C1727   1.403       .  A
C1726      H1731   1.082       .  S
C1727      C1728   1.407       .  A
C1728      H1732   1.082       .  S
C1733      C1734   1.404       .  A
C1733      C1738   1.394       .  A
C1733      H1739   1.082       .  S
C1734      C1735   1.406       .  A
C1735      C1736   1.399       .  A
C1735      H1740   1.082       .  S
C1736      C1737   1.406       .  A
C1736      H1741   1.082       .  S
C1737      C1738   1.405       .  A
C1738      H1742   1.082       .  S
C1743      C1744   1.406       .  A
C1743      C1748   1.396       .  A
C1743      H1749   1.082       .  S
C1744      C1745   1.404       .  A
C1745      C1746   1.397       .  A
C1745      H1750   1.082       .  S
C1746      C1747   1.407       .  A
C1746      H1751   1.082       .  S
C1747      C1748   1.404       .  A
C1748      H1752   1.082       .  S
C1753      C1754   1.404       .  A
C1753      C1758   1.394       .  A
C1753      H1759   1.082       .  S
C1754      C1755   1.405       .  A
C1755      C1756   1.395       .  A
C1755      H1760   1.082       .  S
C1756      C1757   1.404       .  A
C1756      H1761   1.082       .  S
C1757      C1758   1.405       .  A
C1758      H1762   1.082       .  S
C1763      C1764   1.409       .  A
C1763      C1768   1.408       .  A
C1763      H1769   1.082       .  S
C1764      C1765   1.405       .  A
C1765      C1766   1.395       .  A
C1765      H1770   1.082       .  S
C1766      C1767   1.405       .  A
C1766      H1771   1.082       .  S
C1767      C1768   1.409       .  A
C1768      H1772   1.082       .  S
C1773      C1774   1.404       .  A
C1773      C1778   1.392       .  A
C1773      H1779   1.082       .  S
C1774      C1775   1.408       .  A
C1775      C1776   1.404       .  A
C1775      H1780   1.083       .  S
C1776      C1777   1.407       .  A
C1776      H1781   1.082       .  S
C1777      C1778   1.405       .  A
C1778      H1782   1.083       .  S
C1783      C1784   1.403       .  A
C1783      C1788   1.389       .  A
C1783      H1789   1.082       .  S
C1784      C1785   1.406       .  A
C1785      C1786   1.401       .  A
C1785      H1790   1.082       .  S
C1786      C1787   1.407       .  A
C1786      H1791   1.082       .  S
C1787      C1788   1.403       .  A
C1788      H1792   1.082       .  S
C1793      C1794   1.407       .  A
C1793      C1798   1.401       .  A
C1793      H1799   1.082       .  S
C1794      C1795   1.403       .  A
C1795      C1796   1.393       .  A
C1795      H1800   1.083       .  S
C1796      C1797   1.406       .  A
C1796      H1801   1.082       .  S
C1797      C1798   1.405       .  A
C1798      H1802   1.082       .  S
C1803      C1804   1.404       .  A
C1803      C1808   1.397       .  A
C1803      H1809   1.082       .  S
C1804      C1805   1.407       .  A
C1805      C1806   1.397       .  A
C1805      H1810   1.082       .  S
C1806      C1807   1.405       .  A
C1806      H1811   1.083       .  S
C1807      C1808   1.406       .  A
C1808      H1812   1.082       .  S
C1813      C1814   1.405       .  A
C1813      C1818   1.394       .  A
C1813      H1819   1.082       .  S
C1814      C1815   1.407       .  A
C1815      C1816   1.403       .  A
C1815      H1820   1.082       .  S
C1816      C1817   1.407       .  A
C1816      H1821   1.082       .  S
C1817      C1818   1.403       .  A
C1818      H1822   1.083       .  S
C1823      C1824   1.405       .  A
C1823      C1828   1.395       .  A
C1823      H1829   1.082       .  S
C1824      C1825   1.404       .  A
C1825      C1826   1.395       .  A
C1825      H1830   1.082       .  S
C1826      C1827   1.404       .  A
C1826      H1831   1.082       .  S
C1827      C1828   1.404       .  A
C1828      H1832   1.082       .  S
C1833      C1834   1.207       .  T
C1835      C1836   1.403       .  A
C1835      C1840   1.396       .  A
C1835      H1841   1.083       .  S
C1836      C1837   1.405       .  A
C1837      C1838   1.391       .  A
C1837      H1842   1.081       .  S
C1838      C1839   1.402       .  A
C1838      H1843   1.083       .  S
C1839      C1840   1.406       .  A
C1840      H1844   1.081       .  S
C1845      C1846   1.409       .  A
C1845      C1850   1.405       .  A
C1845      H1851   1.082       .  S
C1846      C1847   1.404       .  A
C1847      C1848   1.394       .  A
C1847      H1852   1.082       .  S
C1848      C1849   1.405       .  A
C1848      H1853   1.082       .  S
C1849      C1850   1.407       .  A
C1850      H1854   1.082       .  S
C1855      C1856   1.212       .  T
C1857      C1858   1.211       .  T
C1859      C1860   1.221       .  T
C1861      C1862   1.210       .  T
C1863      C1864   1.211       .  T
C1865      C1866   1.205       .  T
C1867      C1868   1.212       .  T
C1869      C1870   1.210       .  T
C1871      C1872   1.219       .  T
C1873      C1874   1.212       .  T
C1875      C1876   1.208       .  T
C1877      C1878   1.211       .  T
C1879      C1880   1.212       .  T
C1881      C1882   1.215       .  T
C1883      C1884   1.214       .  T
C1885      C1886   1.211       .  T
C1887      C1888   1.211       .  T
C1889      C1890   1.212       .  T
C1891      C1892   1.213       .  T
C1893      C1894   1.209       .  T
C1895      C1896   1.209       .  T
C1897      C1898   1.209       .  T
C1899      C1900   1.209       .  T
C1901      C1902   1.207       .  T
C1903      C1904   1.213       .  T
C1905      C1906   1.211       .  T
C1907      C1908   1.201       .  T
C1909      C1910   1.209       .  T
C1911      C1912   1.216       .  T
C1913      C1914   1.210       .  T
C1915      C1916   1.218       .  T
C1917      C1918   1.212       .  T
C1919      C1920   1.213       .  T
C1921      C1922   1.208       .  T
C1923      C1924   1.215       .  T
C1925      C1926   1.211       .  T
C1927      C1928   1.213       .  T
C1929      C1930   1.211       .  T
C1931      C1932   1.206       .  T
C1933      C1934   1.210       .  T
C1935      C1936   1.212       .  T
C1937      C1938   1.211       .  T
C1939      C1940   1.214       .  T
C1941      C1942   1.213       .  T
C1943      C1944   1.215       .  T
C1945      C1946   1.210       .  T
C1947      C1948   1.210       .  T
C1949      C1950   1.214       .  T
C1951      C1952   1.210       .  T
C1953      C1954   1.210       .  T
C1955      C1956   1.216       .  T
C1957      C1958   1.213       .  T
C1959      C1960   1.210       .  T
C1961      C1962   1.209       .  T
C1963      C1964   1.219       .  T
C1965      C1966   1.211       .  T
C1967      C1968   1.221       .  T
C1969      C1970   1.214       .  T
C1971      C1972   1.206       .  T
C1973      C1974   1.214       .  T
C1975      C1976   1.213       .  T
C1977      C1978   1.212       .  T
C1979      C1980   1.213       .  T
C1981      C1982   1.216       .  T
C1983      C1984   1.216       .  T
C1985      C1986   1.215       .  T
C1987      C1988   1.212       .  T
C1989      C1990   1.218       .  T
C1991      C1992   1.212       .  T
C1993      C1994   1.214       .  T
C1995      C1996   1.211       .  T
C1997      C1998   1.216       .  T
C1999      C2000   1.211       .  T
C2001      C2002   1.212       .  T
C2003      C2004   1.210       .  T
C2005      C2006   1.211       .  T
C2007      C2008   1.215       .  T
C2009      C2010   1.212       .  T
C2011      C2012   1.216       .  T
C2013      C2014   1.215       .  T
C2015      C2016   1.210       .  T
