geometry optimzed in LAMMPS
_audit_creation_date              2020-12-01 
_audit_creation_method            'lammps2cif' 
_symmetry_space_group_name_H-M    'P1' 
_symmetry_Int_Tables_number       1 
_symmetry_cell_setting            triclinic 
loop_ 
_symmetry_equiv_pos_as_xyz 
  x,y,z 
_cell_length_a                    41.8272468 
_cell_length_b                    41.65634468728411 
_cell_length_c                    33.84633801737436 
_cell_angle_alpha                 90.04219660958421 
_cell_angle_beta                  89.95479916197678 
_cell_angle_gamma                 119.05534384783051 
loop_ 
_atom_site_label 
_atom_site_type_symbol 
_atom_site_fract_x 
_atom_site_fract_y 
_atom_site_fract_z 
_atom_site_charge 
Fe1        Fe  0.38544616  0.69312897  0.25197447     1.65800
Fe2        Fe  0.30417074  0.61248808  0.24697275     1.73200
Fe3        Fe  0.30432978  0.69458502  0.24407924     1.54400
O4          O  0.33365511  0.72981373  0.28930740    -0.81700
O5          O  0.26863587  0.60914374  0.20315375    -0.80100
O6          O  0.38629573  0.72897835  0.29463768    -0.84300
O7          O  0.39222884  0.73017893  0.20750071    -0.79100
O8          O  0.26568634  0.66187487  0.28537315    -0.80900
O9          O  0.33740650  0.60947475  0.20344662    -0.83600
C10         C  0.37229938  0.74203656  0.19201033     0.97100
C11         C  0.36478584  0.74085485  0.30506881     1.04600
O12         O  0.33135839  0.66677195  0.24768611    -1.12600
O13         O  0.33540057  0.60702427  0.29048710    -0.75000
O14         O  0.38653834  0.66024386  0.29717044    -0.78500
O15         O  0.33935156  0.73057542  0.20238108    -0.79200
C16         C  0.36596008  0.62702216  0.30692575     0.96000
O17         O  0.39135645  0.66027192  0.20984947    -0.77200
O18         O  0.26791771  0.60965784  0.29046994    -0.82400
C19         C  0.25885707  0.63047954  0.18719280     0.98700
C20         C  0.25484375  0.63036566  0.30059546     1.04600
O21         O  0.27137049  0.66353130  0.19813073    -0.78000
C22         C  0.37078433  0.62932523  0.19384443     1.02900
Fe23       Fe  0.69743145  0.38586762  0.24823832     1.65800
Fe24       Fe  0.61557581  0.30608761  0.24244981     1.73200
Fe25       Fe  0.69569539  0.30297487  0.25230450     1.54400
O26         O  0.73336334  0.33338819  0.20928791    -0.81700
O27         O  0.60766993  0.26730037  0.28532653    -0.80100
O28         O  0.73491827  0.38766345  0.20746355    -0.84300
O29         O  0.73070797  0.38866558  0.29437568    -0.79100
O30         O  0.66448065  0.26580274  0.20894429    -0.80900
O31         O  0.60976183  0.33772146  0.28608396    -0.83600
C32         C  0.74181246  0.36788535  0.30903683     0.97100
C33         C  0.74607624  0.36579281  0.19584541     1.04600
O34         O  0.66955818  0.33164802  0.24761013    -1.12600
O35         O  0.61523623  0.34086457  0.19891065    -0.75000
O36         O  0.66865095  0.39213552  0.20238104    -0.78500
O37         O  0.73069225  0.33543558  0.29660798    -0.79200
C38         C  0.63713811  0.37327586  0.18747937     0.96000
O39         O  0.66295194  0.38978742  0.28905262    -0.77200
O40         O  0.61507744  0.27168543  0.19816757    -0.82400
C41         C  0.62762659  0.25696245  0.30360153     0.98700
C42         C  0.63487030  0.25706364  0.19060026     1.04600
O43         O  0.66131083  0.26966790  0.29587886    -0.78000
C44         C  0.63013789  0.36956483  0.30023853     1.02900
C45         C  0.03236439  0.51804704  0.47600325     0.02200
C46         C  0.03474878  0.51453117  0.01721531     0.02200
C47         C  0.00271273  0.49511900  0.03949366    -0.18300
C48         C  0.96824939  0.47974190  0.02147249     0.02200
C49         C  0.96567130  0.48342233  0.48029905     0.02200
C50         C  0.99780841  0.50282170  0.45797724    -0.18300
H51         H  0.99595180  0.50509853  0.42624958     0.04200
H52         H  0.00457664  0.49289470  0.07123913     0.04200
C53         C  0.48665826  0.51914640  0.01805619     0.02200
C54         C  0.48230521  0.51491839  0.47658519     0.02200
C55         C  0.49782537  0.49654856  0.45606046    -0.18300
C56         C  0.51831807  0.48310424  0.47580638     0.02200
C57         C  0.52329330  0.48784565  0.01705992     0.02200
C58         C  0.50758448  0.50598151  0.03772272    -0.18300
H59         H  0.51067582  0.50879117  0.06954340     0.04200
H60         H  0.49483226  0.49361233  0.42423116     0.04200
C61         C  0.47856497  0.96610154  0.47565913     0.02200
C62         C  0.48337315  0.96515895  0.01690275     0.02200
C63         C  0.50285345  0.99830220  0.03764047    -0.18300
C64         C  0.51722164  0.03234463  0.01826361     0.02200
C65         C  0.51239911  0.03322286  0.47695936     0.02200
C66         C  0.49275404  0.00007405  0.45625800    -0.18300
H67         H  0.48963859  0.00067229  0.42450160     0.04200
H68         H  0.50598980  0.99761750  0.06938090     0.04200
C69         C  0.53662343  0.06652981  0.04192882    -0.01400
C70         C  0.56613235  0.07213029  0.06582955    -0.09400
C71         C  0.58489804  0.10423988  0.08798626    -0.18200
C72         C  0.57443560  0.13184834  0.08719653     0.04200
C73         C  0.54424471  0.12586920  0.06299391     0.18400
C74         C  0.52578786  0.09350746  0.04062893    -0.19600
C75         C  0.53226880  0.15192972  0.06179554    -0.20900
C76         C  0.54880317  0.18327883  0.08523651    -0.19400
C77         C  0.57812104  0.18965180  0.10997630     0.19800
C78         C  0.59207718  0.16459002  0.11042763     0.01900
C79         C  0.62270510  0.17313986  0.13465543    -0.14200
C80         C  0.63735804  0.20395704  0.15917308    -0.11900
C81         C  0.62211240  0.22738197  0.16054245     0.01400
C82         C  0.59301723  0.22050840  0.13502416    -0.24100
H83         H  0.57489750  0.05158357  0.06710618     0.09400
H84         H  0.60713491  0.10633311  0.10586658     0.13000
H85         H  0.50259863  0.08900778  0.02250121     0.11700
H86         H  0.50943128  0.14765464  0.04321988     0.12900
H87         H  0.53829498  0.20247494  0.08435340     0.11900
H88         H  0.63576498  0.15633295  0.13572822     0.09000
H89         H  0.66005789  0.20871069  0.17818663     0.12300
H90         H  0.58133756  0.23874404  0.13527502     0.14100
C91         C  0.52976706  0.06817306  0.45441469    -0.01400
C92         C  0.56760586  0.09128586  0.45646045    -0.09400
C93         C  0.58441930  0.12405285  0.43518623    -0.18200
C94         C  0.56380396  0.13463850  0.41058812     0.04200
C95         C  0.52528487  0.11114707  0.40889241     0.18400
C96         C  0.50871633  0.07825448  0.43063083    -0.19600
C97         C  0.50361506  0.12036410  0.38507172    -0.20900
C98         C  0.51946063  0.15188742  0.36189661    -0.19400
C99         C  0.55738603  0.17499262  0.36194189     0.19800
C100        C  0.58007753  0.16706947  0.38679483     0.01900
C101        C  0.61817425  0.19144890  0.38588436    -0.16200
C102        C  0.63320865  0.22112357  0.35984947    -0.11900
C103        C  0.61092138  0.22799428  0.33422276     0.01400
C104        C  0.57287173  0.20537257  0.33630381    -0.24100
H105        H  0.58433444  0.08373796  0.47444400     0.09400
H106        H  0.61365837  0.14020084  0.43829841     0.13000
H107        H  0.47935977  0.06038920  0.42911941     0.11700
H108        H  0.47422857  0.10274213  0.38386440     0.12900
H109        H  0.50196964  0.15787243  0.34322718     0.11900
H110        H  0.63726513  0.18796693  0.40429680     0.09000
H111        H  0.66263901  0.23844681  0.35934016     0.12300
H112        H  0.55529622  0.21043936  0.31672151     0.14100
C113        C  0.77010561  0.38290576  0.34053659    -0.01400
C114        C  0.78011900  0.36011393  0.36143640    -0.09400
C115        C  0.80950470  0.37491482  0.38791398    -0.18200
C116        C  0.83043071  0.41332754  0.39382366     0.04200
C117        C  0.81946572  0.43619943  0.37343192     0.18400
C118        C  0.78933669  0.42087520  0.34771619    -0.19600
C119        C  0.83949870  0.47441574  0.37752566    -0.20900
C120        C  0.87127944  0.49062936  0.40000831    -0.19400
C121        C  0.88350779  0.46901867  0.41950428     0.19800
C122        C  0.86265861  0.43000778  0.41781118     0.01900
C123        C  0.87559477  0.40953019  0.43936151    -0.14200
C124        C  0.90866433  0.42704218  0.45994767    -0.11900
C125        C  0.92982445  0.46534497  0.45983947     0.01400
C126        C  0.91689066  0.48623013  0.44008521    -0.24100
H127        H  0.76564045  0.33069054  0.35673323     0.09400
H128        H  0.81588177  0.35565103  0.40228741     0.13000
H129        H  0.78199779  0.43891665  0.33175574     0.11700
H130        H  0.83113471  0.49198040  0.36223780     0.12900
H131        H  0.88673065  0.52033088  0.40163369     0.11900
H132        H  0.86097373  0.37997418  0.44061787     0.09000
H133        H  0.91816185  0.41054224  0.47551071     0.12300
H134        H  0.93301887  0.51594285  0.44062071     0.14100
C135        C  0.77607408  0.37925288  0.16645885    -0.01400
C136        C  0.79489225  0.35971697  0.15915019    -0.09400
C137        C  0.82560626  0.37420058  0.13462700    -0.18200
C138        C  0.83855704  0.40890829  0.11648637     0.04200
C139        C  0.81823166  0.42770246  0.12238878     0.18400
C140        C  0.78753026  0.41290565  0.14724611    -0.19600
C141        C  0.82897183  0.46148277  0.10397062    -0.20900
C142        C  0.85982360  0.47733213  0.08005438    -0.19400
C143        C  0.88108452  0.46013590  0.07462059     0.19800
C144        C  0.87099236  0.42578799  0.09297261     0.01900
C145        C  0.89430100  0.41034276  0.08767807    -0.14200
C146        C  0.92606352  0.42818732  0.06494741    -0.11900
C147        C  0.93519449  0.46147401  0.04638783     0.01400
C148        C  0.91269288  0.47733974  0.05123815    -0.24100
H149        H  0.78646628  0.33348921  0.17328035     0.09400
H150        H  0.83871140  0.35764015  0.13064966     0.13000
H151        H  0.77287754  0.42805018  0.15214712     0.11700
H152        H  0.81344256  0.47581626  0.10818168     0.12900
H153        H  0.86743285  0.50352284  0.06619184     0.11900
H154        H  0.88904955  0.38480679  0.10114464     0.09000
H155        H  0.94340867  0.41575655  0.06139461     0.12300
H156        H  0.92012478  0.50336877  0.03701350     0.14100
C157        C  0.62486539  0.39063220  0.15710487    -0.01400
C158        C  0.64323832  0.42893470  0.15256534    -0.09400
C159        C  0.62938968  0.44615332  0.12791611    -0.18200
C160        C  0.59650329  0.42551631  0.10670758     0.04200
C161        C  0.57916818  0.38656548  0.10953121     0.18400
C162        C  0.59325298  0.36960443  0.13470572    -0.19600
C163        C  0.54733714  0.36474305  0.08794930    -0.20900
C164        C  0.53167211  0.38073100  0.06444228    -0.19400
C165        C  0.54704733  0.41894340  0.06250297     0.19800
C166        C  0.57978667  0.44201053  0.08345854     0.01900
C167        C  0.59356222  0.48047259  0.08123894    -0.14200
C168        C  0.57516818  0.49519252  0.05977818    -0.11900
C169        C  0.54301172  0.47222986  0.03935002     0.01400
C170        C  0.52931365  0.43419882  0.04043359    -0.24100
H171        H  0.66786744  0.44593718  0.16924519     0.09400
H172        H  0.64484285  0.47568575  0.12647236     0.13000
H173        H  0.57905744  0.33993754  0.13750578     0.11700
H174        H  0.53419998  0.33505020  0.08961338     0.12900
H175        H  0.50681995  0.36303897  0.04839583     0.11900
H176        H  0.61802131  0.49986061  0.09642701     0.09000
H177        H  0.58612218  0.52469067  0.05901396     0.12300
H178        H  0.50423770  0.41642965  0.02472760     0.14100
C179        C  0.53576159  0.46580198  0.45244424    -0.01400
C180        C  0.57385369  0.48247916  0.45015926    -0.09400
C181        C  0.59065227  0.46684909  0.42755631    -0.18200
C182        C  0.56962127  0.43372932  0.40653252     0.04200
C183        C  0.53087313  0.41646676  0.40993184     0.18400
C184        C  0.51436810  0.43280682  0.43239658    -0.19600
C185        C  0.50883368  0.38310569  0.39075506    -0.20900
C186        C  0.52438794  0.36671549  0.36762548    -0.19400
C187        C  0.56233827  0.38357113  0.36259775     0.19800
C188        C  0.58554745  0.41730406  0.38201216     0.01900
C189        C  0.62361178  0.43352907  0.37526511    -0.14200
C190        C  0.63786789  0.41743190  0.34964708    -0.11900
C191        C  0.61488888  0.38447470  0.33009285     0.01400
C192        C  0.57714358  0.36733375  0.33737311    -0.24100
H193        H  0.59068241  0.50797725  0.46570416     0.09400
H194        H  0.62010599  0.48134946  0.42725129     0.13000
H195        H  0.48481280  0.41977630  0.43458932     0.11700
H196        H  0.47931907  0.36966232  0.39351923     0.12900
H197        H  0.50654086  0.34098109  0.35297254     0.11900
H198        H  0.64311109  0.45910874  0.38859773     0.09000
H199        H  0.66713896  0.43128090  0.34471932     0.12300
H200        H  0.55901966  0.34192503  0.32229475     0.14100
C201        C  0.23048471  0.61554670  0.15592354    -0.01400
C202        C  0.21981019  0.63830244  0.13603062    -0.09400
C203        C  0.19008881  0.62351978  0.11009702    -0.18200
C204        C  0.16962088  0.58517812  0.10361418     0.04200
C205        C  0.18147050  0.56240574  0.12269270     0.18400
C206        C  0.21179828  0.57771280  0.14805107    -0.19600
C207        C  0.16219497  0.52427986  0.11758037    -0.20900
C208        C  0.13039245  0.50799955  0.09519198    -0.19400
C209        C  0.11730048  0.52947463  0.07703342     0.19800
C210        C  0.13717445  0.56846162  0.08008474     0.01900
C211        C  0.12312873  0.58884552  0.06024600    -0.14200
C212        C  0.09020530  0.57117494  0.03949234    -0.11900
C213        C  0.07030233  0.53285271  0.03790655     0.01400
C214        C  0.08405199  0.51211252  0.05635030    -0.24100
H215        H  0.23392708  0.66765561  0.14122860     0.09400
H216        H  0.18322322  0.64275233  0.09649844     0.13000
H217        H  0.21979628  0.55973664  0.16309223     0.11700
H218        H  0.17126295  0.50681906  0.13185299     0.12900
H219        H  0.11561156  0.47833506  0.59257557     0.11900
H220        H  0.13673703  0.61841466  0.06042814     0.09000
H221        H  0.07986969  0.58749029  0.02504746     0.12300
H222        H  0.06869134  0.48238741  0.55462774     0.14100
C223        C  0.06574592  0.53619987  0.45129671    -0.01400
C224        C  0.07446967  0.56878365  0.43138001    -0.09400
C225        C  0.10639089  0.58649710  0.40880094    -0.18200
C226        C  0.13037666  0.57165029  0.40498021     0.04200
C227        C  0.12097616  0.53820566  0.42499597     0.18400
C228        C  0.08915067  0.52111662  0.44820929    -0.19600
C229        C  0.14307433  0.52171071  0.42122587    -0.20900
C230        C  0.17385571  0.53715856  0.39705961    -0.19400
C231        C  0.18376247  0.56990885  0.37668898     0.19800
C232        C  0.16274594  0.58816966  0.38120160     0.01900
C233        C  0.17486875  0.62195758  0.36133703    -0.14200
C234        C  0.20532144  0.63595609  0.33644056    -0.11900
C235        C  0.22484730  0.61691097  0.33029964     0.01400
C236        C  0.21425485  0.58419093  0.35126846    -0.24100
H237        H  0.05663021  0.58077081  0.43366275     0.09400
H238        H  0.11117757  0.61140205  0.39419701     0.13000
H239        H  0.08220391  0.49570698  0.46355888     0.11700
H240        H  0.13609480  0.49626686  0.43646836     0.12900
H241        H  0.18991750  0.52325243  0.39409708     0.11900
H242        H  0.16129434  0.63816758  0.36421555     0.09000
H243        H  0.21301098  0.66150614  0.32112271     0.12300
H244        H  0.22940409  0.56942708  0.34735808     0.14100
C245        C  0.38676534  0.61526435  0.16375337    -0.01400
C246        C  0.36425647  0.58616663  0.13870447    -0.09400
C247        C  0.37919102  0.57091245  0.11261602    -0.18200
C248        C  0.41735998  0.58391549  0.11121539     0.04200
C249        C  0.44008604  0.61394630  0.13610629     0.18400
C250        C  0.42475770  0.62949671  0.16154091    -0.19600
C251        C  0.47797790  0.62772250  0.13634440    -0.20900
C252        C  0.49386062  0.61178409  0.11308451    -0.19400
C253        C  0.47231132  0.58185021  0.08872235     0.19800
C254        C  0.43378304  0.56775414  0.08687766     0.01900
C255        C  0.41346414  0.53773547  0.06128366    -0.14200
C256        C  0.43063584  0.52207984  0.03919051    -0.11900
C257        C  0.46851442  0.53588887  0.04157834     0.01400
C258        C  0.48915265  0.56576872  0.06638653    -0.24100
H259        H  0.33483821  0.57482105  0.13954539     0.09400
H260        H  0.36006184  0.54846782  0.09455904     0.13000
H261        H  0.44250101  0.65190510  0.18084802     0.11700
H262        H  0.49544125  0.65064505  0.15519718     0.12900
H263        H  0.52323746  0.62278162  0.11442316     0.11900
H264        H  0.38426846  0.52560736  0.05782284     0.09000
H265        H  0.41418855  0.49883690  0.02027308     0.12300
H266        H  0.51852255  0.57666553  0.06804563     0.14100
C267        C  0.37867108  0.60995568  0.33701185    -0.01400
C268        C  0.36275780  0.57160986  0.33860803    -0.09400
C269        C  0.37720271  0.55478725  0.36278189    -0.18200
C270        C  0.40823165  0.57585606  0.38650390     0.04200
C271        C  0.42265540  0.61460214  0.38713324     0.18400
C272        C  0.40809781  0.63129804  0.36217710    -0.19600
C273        C  0.45200620  0.63643882  0.41201871    -0.20900
C274        C  0.46802721  0.62070984  0.43547066    -0.19400
C275        C  0.45570999  0.58290488  0.43381892     0.19800
C276        C  0.42568747  0.55990280  0.40920053     0.01900
C277        C  0.41527024  0.52212828  0.40730780    -0.14200
C278        C  0.43373983  0.50784709  0.42912464    -0.11900
C279        C  0.46282979  0.53050035  0.45376977     0.01400
C280        C  0.47373436  0.56802140  0.45601212    -0.24100
H281        H  0.33970458  0.55435337  0.31992576     0.09400
H282        H  0.36355151  0.52521876  0.36200045     0.13000
H283        H  0.42015846  0.66095986  0.36178580     0.11700
H284        H  0.46283646  0.66592435  0.41312285     0.12900
H285        H  0.49081335  0.63837111  0.45429523     0.11900
H286        H  0.39348205  0.50299789  0.38862291     0.09000
H287        H  0.42515535  0.47883047  0.42690259     0.12300
H288        H  0.49676108  0.58573125  0.47456314     0.14100
C289        C  0.46654002  0.93006524  0.03927123    -0.01400
C290        C  0.42874045  0.90658670  0.03764619    -0.09400
C291        C  0.41238957  0.87404285  0.05940408    -0.18200
C292        C  0.43347716  0.86402234  0.08397986     0.04200
C293        C  0.47201326  0.88754860  0.08468161     0.18400
C294        C  0.48808266  0.92028657  0.06262842    -0.19600
C295        C  0.49422517  0.87851730  0.10781429    -0.20900
C296        C  0.47894105  0.84707673  0.13115065    -0.19400
C297        C  0.44101182  0.82404686  0.13228231     0.19800
C298        C  0.41771051  0.83200767  0.10849000     0.01900
C299        C  0.37957496  0.80817029  0.11122636    -0.14200
C300        C  0.36520712  0.77861288  0.13747990    -0.11900
C301        C  0.38817277  0.77127559  0.16150887     0.01400
C302        C  0.42617082  0.79368892  0.15802641    -0.24100
H303        H  0.41164915  0.91375054  0.01978438     0.09400
H304        H  0.38317947  0.85753481  0.05655623     0.13000
H305        H  0.51742567  0.93830030  0.06361794     0.11700
H306        H  0.52362839  0.89613383  0.10821804     0.12900
H307        H  0.49689246  0.84114327  0.14909142     0.11900
H308        H  0.35999536  0.81208383  0.09422140     0.09000
H309        H  0.33577571  0.76164764  0.13931945     0.12300
H310        H  0.44424880  0.78845214  0.17659989     0.14100
C311        C  0.37720399  0.77014275  0.33539246    -0.01400
C312        C  0.35923061  0.79089543  0.33962581    -0.09400
C313        C  0.37344347  0.82178294  0.36396502    -0.18200
C314        C  0.40632934  0.83301971  0.38506776     0.04200
C315        C  0.42301307  0.81036327  0.38301025     0.18400
C316        C  0.40856261  0.77946595  0.35811566    -0.19600
C317        C  0.45451020  0.81918413  0.40507452    -0.20900
C318        C  0.47038217  0.85061114  0.42840994    -0.19400
C319        C  0.45566738  0.87444213  0.42945643     0.19800
C320        C  0.42349276  0.86611222  0.40767457     0.01900
C321        C  0.41063445  0.89189635  0.40841731    -0.14200
C322        C  0.42883995  0.92437529  0.43008059    -0.11900
C323        C  0.45998580  0.93195737  0.45204309     0.01400
C324        C  0.47332015  0.90694783  0.45163597    -0.24100
H325        H  0.33466410  0.78406523  0.32291725     0.09400
H326        H  0.35819697  0.83644671  0.36533489     0.13000
H327        H  0.42230563  0.76317869  0.35572835     0.11700
H328        H  0.46712874  0.80180697  0.40403609     0.12900
H329        H  0.49484500  0.85677133  0.44502994     0.11900
H330        H  0.38701373  0.88814131  0.39200282     0.09000
H331        H  0.41833130  0.94356974  0.43005703     0.12300
H332        H  0.49780216  0.91313912  0.46827834     0.14100
Fe333      Fe  0.38544614  0.69312889  0.75197446     1.65800
Fe334      Fe  0.30417070  0.61248801  0.74697303     1.73200
Fe335      Fe  0.30432971  0.69458490  0.74407929     1.54400
O336        O  0.33365508  0.72981372  0.78930731    -0.81700
O337        O  0.26863573  0.60914345  0.70315399    -0.80100
O338        O  0.38629572  0.72897837  0.79463758    -0.84300
O339        O  0.39222870  0.73017871  0.70750059    -0.79100
O340        O  0.26568641  0.66187491  0.78537337    -0.80900
O341        O  0.33740638  0.60947452  0.70344689    -0.83600
C342        C  0.37229924  0.74203635  0.69201024     0.97100
C343        C  0.36478583  0.74085489  0.80506868     1.04600
O344        O  0.33135835  0.66677187  0.74768624    -1.12600
O345        O  0.33540058  0.60702439  0.79048752    -0.75000
O346        O  0.38653851  0.66024389  0.79717046    -0.78500
O347        O  0.33935144  0.73057526  0.70238105    -0.79200
C348        C  0.36596015  0.62702225  0.80692602     0.96000
O349        O  0.39135633  0.66027171  0.70984961    -0.77200
O350        O  0.26791777  0.60965789  0.79047023    -0.82400
C351        C  0.25885689  0.63047922  0.68719302     0.98700
C352        C  0.25484388  0.63036574  0.80059577     1.04600
O353        O  0.27137032  0.66353099  0.69813090    -0.78000
C354        C  0.37078419  0.62932494  0.69384468     1.02900
Fe355      Fe  0.69743148  0.38586765  0.74823839     1.65800
Fe356      Fe  0.61557576  0.30608768  0.74244970     1.73200
Fe357      Fe  0.69569529  0.30297481  0.75230456     1.54400
O358        O  0.73336324  0.33338801  0.70928784    -0.81700
O359        O  0.60766981  0.26730032  0.78532634    -0.80100
O360        O  0.73491850  0.38766343  0.70746387    -0.84300
O361        O  0.73070775  0.38866547  0.79437598    -0.79100
O362        O  0.66448046  0.26580255  0.70894450    -0.80900
O363        O  0.60976177  0.33772149  0.78608394    -0.83600
C364        C  0.74181232  0.36788524  0.80903698     0.97100
C365        C  0.74607633  0.36579273  0.69584555     1.04600
O366        O  0.66955811  0.33164802  0.74761021    -1.12600
O367        O  0.61523638  0.34086486  0.69891063    -0.75000
O368        O  0.66865125  0.39213568  0.70238085    -0.78500
O369        O  0.73069225  0.33543557  0.79660795    -0.79200
C370        C  0.63713834  0.37327610  0.68747926     0.96000
O371        O  0.66295181  0.38978756  0.78905244    -0.77200
O372        O  0.61507748  0.27168556  0.69816737    -0.82400
C373        C  0.62762646  0.25696248  0.80360151     0.98700
C374        C  0.63487023  0.25706360  0.69060028     1.04600
O375        O  0.66131075  0.26966799  0.79587901    -0.78000
C376        C  0.63013780  0.36956494  0.80023840     1.02900
C377        C  0.03236443  0.51804688  0.97600326     0.02200
C378        C  0.03474878  0.51453127  0.51721527     0.02200
C379        C  0.00271276  0.49511908  0.53949368    -0.18300
C380        C  0.96824939  0.47974205  0.52147254     0.02200
C381        C  0.96567134  0.48342209  0.98029897     0.02200
C382        C  0.99780847  0.50282146  0.95797720    -0.18300
H383        H  0.99595191  0.50509825  0.92624952     0.04200
H384        H  0.00457671  0.49289469  0.57123897     0.04200
C385        C  0.48665846  0.51914662  0.51805612     0.02200
C386        C  0.48230501  0.51491813  0.97658527     0.02200
C387        C  0.49782512  0.49654823  0.95606058    -0.18300
C388        C  0.51831784  0.48310395  0.97580653     0.02200
C389        C  0.52329352  0.48784590  0.51705978     0.02200
C390        C  0.50758472  0.50598175  0.53772260    -0.18300
H391        H  0.51067610  0.50879143  0.56954330     0.04200
H392        H  0.49483197  0.49361194  0.92423129     0.04200
C393        C  0.47856497  0.96610158  0.97565909     0.02200
C394        C  0.48337313  0.96515888  0.51690278     0.02200
C395        C  0.50285342  0.99830213  0.53764051    -0.18300
C396        C  0.51722166  0.03234456  0.51826366     0.02200
C397        C  0.51239907  0.03322292  0.97695933     0.02200
C398        C  0.49275404  0.00007409  0.95625797    -0.18300
H399        H  0.48963857  0.00067232  0.92450156     0.04200
H400        H  0.50598978  0.99761744  0.56938097     0.04200
C401        C  0.53662342  0.06652971  0.54192884    -0.01400
C402        C  0.56613224  0.07213016  0.56582976    -0.09400
C403        C  0.58489791  0.10423974  0.58798641    -0.18200
C404        C  0.57443558  0.13184827  0.58719657     0.04200
C405        C  0.54424475  0.12586917  0.56299375     0.18400
C406        C  0.52578802  0.09350745  0.54062884    -0.19600
C407        C  0.53226905  0.15192984  0.56179524    -0.20900
C408        C  0.54880341  0.18327894  0.58523615    -0.19400
C409        C  0.57812114  0.18965184  0.60997614     0.19800
C410        C  0.59207715  0.16458994  0.61042765     0.01900
C411        C  0.62270490  0.17313970  0.63465566    -0.14200
C412        C  0.63735790  0.20395689  0.65917330    -0.11900
C413        C  0.62211236  0.22738192  0.66054244     0.01400
C414        C  0.59301729  0.22050844  0.63502403    -0.24100
H415        H  0.57489736  0.05158331  0.56710650     0.09400
H416        H  0.60713484  0.10633300  0.60586681     0.13000
H417        H  0.50259865  0.08900778  0.52250074     0.11700
H418        H  0.50943150  0.14765481  0.54321934     0.12900
H419        H  0.53829534  0.20247524  0.58435289     0.11900
H420        H  0.63576468  0.15633260  0.63572874     0.09000
H421        H  0.66005746  0.20871039  0.67818691     0.12300
H422        H  0.58133773  0.23874406  0.63527479     0.14100
C423        C  0.52976696  0.06817314  0.95441468    -0.01400
C424        C  0.56760571  0.09128611  0.95646065    -0.09400
C425        C  0.58441914  0.12405312  0.93518643    -0.18200
C426        C  0.56380377  0.13463855  0.91058806     0.04200
C427        C  0.52528477  0.11114692  0.90889205     0.18400
C428        C  0.50871623  0.07825434  0.93063051    -0.19600
C429        C  0.50361494  0.12036367  0.88507099    -0.20900
C430        C  0.51946053  0.15188692  0.86189579    -0.19400
C431        C  0.55738585  0.17499238  0.86194144     0.19800
C432        C  0.58007733  0.16706955  0.88679482     0.01900
C433        C  0.61817395  0.19144934  0.88588487    -0.16200
C434        C  0.63320839  0.22112397  0.85984993    -0.11900
C435        C  0.61092117  0.22799432  0.83422275     0.01400
C436        C  0.57287155  0.20537234  0.83630338    -0.24100
H437        H  0.58433433  0.08373833  0.97444434     0.09400
H438        H  0.61365809  0.14020114  0.93829874     0.13000
H439        H  0.47935976  0.06038893  0.92911887     0.11700
H440        H  0.47422853  0.10274156  0.88386346     0.12900
H441        H  0.50196951  0.15787170  0.84322593     0.11900
H442        H  0.63726477  0.18796770  0.90429780     0.09000
H443        H  0.66263866  0.23844743  0.85934100     0.12300
H444        H  0.55529607  0.21043890  0.81672079     0.14100
C445        C  0.77010544  0.38290560  0.84053678    -0.01400
C446        C  0.78011901  0.36011373  0.86143627    -0.09400
C447        C  0.80950471  0.37491461  0.88791390    -0.18200
C448        C  0.83043059  0.41332731  0.89382376     0.04200
C449        C  0.81946540  0.43619919  0.87343239     0.18400
C450        C  0.78933629  0.42087500  0.84771670    -0.19600
C451        C  0.83949823  0.47441550  0.87752636    -0.20900
C452        C  0.87127908  0.49062910  0.90000888    -0.19400
C453        C  0.88350763  0.46901843  0.91950451     0.19800
C454        C  0.86265859  0.43000755  0.91781117     0.01900
C455        C  0.87559490  0.40952995  0.93936119    -0.14200
C456        C  0.90866449  0.42704193  0.95994734    -0.11900
C457        C  0.92982448  0.46534474  0.95983936     0.01400
C458        C  0.91689053  0.48622992  0.94008541    -0.24100
H459        H  0.76564069  0.33069048  0.85673286     0.09400
H460        H  0.81588185  0.35565083  0.90228713     0.13000
H461        H  0.78199724  0.43891638  0.83175658     0.11700
H462        H  0.83113413  0.49198010  0.86223884     0.12900
H463        H  0.88673018  0.52033061  0.90163441     0.11900
H464        H  0.86097401  0.37997395  0.94061737     0.09000
H465        H  0.91816206  0.41054204  0.97551014     0.12300
H466        H  0.93301859  0.51594260  0.94062115     0.14100
C467        C  0.77607418  0.37925279  0.66645896    -0.01400
C468        C  0.79489232  0.35971684  0.65915020    -0.09400
C469        C  0.82560636  0.37420056  0.63462708    -0.18200
C470        C  0.83855717  0.40890826  0.61648654     0.04200
C471        C  0.81823171  0.42770237  0.62238889     0.18400
C472        C  0.78753031  0.41290556  0.64724623    -0.19600
C473        C  0.82897177  0.46148259  0.60397066    -0.20900
C474        C  0.85982348  0.47733197  0.58005434    -0.19400
C475        C  0.88108451  0.46013582  0.57462067     0.19800
C476        C  0.87099249  0.42578798  0.59297282     0.01900
C477        C  0.89430123  0.41034291  0.58767828    -0.14200
C478        C  0.92606372  0.42818746  0.56494761    -0.11900
C479        C  0.93519454  0.46147412  0.54638794     0.01400
C480        C  0.91269280  0.47733968  0.55123820    -0.24100
H481        H  0.78646637  0.33348912  0.67328027     0.09400
H482        H  0.83871164  0.35764006  0.63064967     0.13000
H483        H  0.77287761  0.42804999  0.65214719     0.11700
H484        H  0.81344244  0.47581609  0.60818170     0.12900
H485        H  0.86743261  0.50352250  0.56619178     0.11900
H486        H  0.88904980  0.38480673  0.60114500     0.09000
H487        H  0.94340890  0.41575686  0.56139480     0.12300
H488        H  0.92012457  0.50336870  0.53701342     0.14100
C489        C  0.62486561  0.39063249  0.65710483    -0.01400
C490        C  0.64323842  0.42893497  0.65256544    -0.09400
C491        C  0.62938981  0.44615362  0.62791625    -0.18200
C492        C  0.59650348  0.42551660  0.60670754     0.04200
C493        C  0.57916848  0.38656577  0.60953101     0.18400
C494        C  0.59325325  0.36960472  0.63470554    -0.19600
C495        C  0.54733750  0.36474334  0.58794894    -0.20900
C496        C  0.53167247  0.38073130  0.56444197    -0.19400
C497        C  0.54704757  0.41894368  0.56250279     0.19800
C498        C  0.57978685  0.44201083  0.58345854     0.01900
C499        C  0.59356226  0.48047286  0.58123907    -0.14200
C500        C  0.57516829  0.49519279  0.55977824    -0.11900
C501        C  0.54301193  0.47223011  0.53934988     0.01400
C502        C  0.52931398  0.43419911  0.54043333    -0.24100
H503        H  0.66786761  0.44593751  0.66924542     0.09400
H504        H  0.64484291  0.47568606  0.62647259     0.13000
H505        H  0.57905777  0.33993780  0.63750547     0.11700
H506        H  0.53420042  0.33505050  0.58961288     0.12900
H507        H  0.50682037  0.36303927  0.54839536     0.11900
H508        H  0.61802128  0.49986091  0.59642740     0.09000
H509        H  0.58612220  0.52469092  0.55901412     0.12300
H510        H  0.50423807  0.41642990  0.52472705     0.14100
C511        C  0.53576138  0.46580170  0.95244443    -0.01400
C512        C  0.57385351  0.48247920  0.95015906    -0.09400
C513        C  0.59065209  0.46684928  0.92755594    -0.18200
C514        C  0.56962120  0.43372928  0.90653250     0.04200
C515        C  0.53087303  0.41646634  0.90993234     0.18400
C516        C  0.51436800  0.43280636  0.93239712    -0.19600
C517        C  0.50883369  0.38310497  0.89075605    -0.20900
C518        C  0.52438795  0.36671489  0.86762642    -0.19400
C519        C  0.56233822  0.38357082  0.86259808     0.19800
C520        C  0.58554736  0.41730407  0.88201207     0.01900
C521        C  0.62361165  0.43352941  0.87526453    -0.14200
C522        C  0.63786775  0.41743227  0.84964649    -0.11900
C523        C  0.61488877  0.38447478  0.83009266     0.01400
C524        C  0.57714358  0.36733356  0.83737343    -0.24100
H525        H  0.59068216  0.50797746  0.96570375     0.09400
H526        H  0.62010598  0.48135001  0.92725053     0.13000
H527        H  0.48481256  0.41977555  0.93459019     0.11700
H528        H  0.47931895  0.36966125  0.89352072     0.12900
H529        H  0.50654081  0.34098009  0.85297373     0.11900
H530        H  0.64311090  0.45910930  0.88859678     0.09000
H531        H  0.66713881  0.43128151  0.84471837     0.12300
H532        H  0.55901959  0.34192441  0.82229533     0.14100
C533        C  0.23048450  0.61554638  0.65592378    -0.01400
C534        C  0.21981007  0.63830215  0.63603081    -0.09400
C535        C  0.19008875  0.62351953  0.61009714    -0.18200
C536        C  0.16962084  0.58517787  0.60361423     0.04200
C537        C  0.18147028  0.56240544  0.62269292     0.18400
C538        C  0.21179801  0.57771245  0.64805141    -0.19600
C539        C  0.16219455  0.52427953  0.61758081    -0.20900
C540        C  0.13039208  0.50799928  0.59519238    -0.19400
C541        C  0.11730034  0.52947443  0.57703353     0.19800
C542        C  0.13717448  0.56846147  0.58008471     0.01900
C543        C  0.12312887  0.58884537  0.56024590    -0.14200
C544        C  0.09020548  0.57117495  0.53949221    -0.11900
C545        C  0.07030236  0.53285269  0.53790651     0.01400
C546        C  0.08405187  0.51211244  0.55635039    -0.24100
H547        H  0.23392701  0.66765533  0.64122874     0.09400
H548        H  0.18322321  0.64275215  0.59649851     0.13000
H549        H  0.21979582  0.55973637  0.66309265     0.11700
H550        H  0.17126237  0.50681864  0.63185370     0.12900
H551        H  0.11561213  0.47833535  0.09257499     0.11900
H552        H  0.13673735  0.61841475  0.56042799     0.09000
H553        H  0.07987001  0.58749030  0.52504730     0.12300
H554        H  0.06869166  0.48238754  0.05462752     0.14100
C555        C  0.06574598  0.53619979  0.95129677    -0.01400
C556        C  0.07446967  0.56878350  0.93138001    -0.09400
C557        C  0.10639091  0.58649705  0.90880095    -0.18200
C558        C  0.13037685  0.57165038  0.90498052     0.04200
C559        C  0.12097643  0.53820584  0.92499638     0.18400
C560        C  0.08915085  0.52111667  0.94820953    -0.19600
C561        C  0.14307475  0.52171105  0.92122656    -0.20900
C562        C  0.17385617  0.53715894  0.89706039    -0.19400
C563        C  0.18376286  0.56990914  0.87668962     0.19800
C564        C  0.16274619  0.58816986  0.88120202     0.01900
C565        C  0.17486883  0.62195760  0.86133718    -0.14200
C566        C  0.20532142  0.63595605  0.83644058    -0.11900
C567        C  0.22484749  0.61691110  0.83030001     0.01400
C568        C  0.21425528  0.58419125  0.85126914    -0.24100
H569        H  0.05663014  0.58077063  0.93366266     0.09400
H570        H  0.11117746  0.61140175  0.89419699     0.13000
H571        H  0.08220418  0.49570711  0.96355917     0.11700
H572        H  0.13609528  0.49626727  0.93646920     0.12900
H573        H  0.18991809  0.52325285  0.89409802     0.11900
H574        H  0.16129426  0.63816755  0.86421548     0.09000
H575        H  0.21301073  0.66150584  0.82112245     0.12300
H576        H  0.22940465  0.56942759  0.84735903     0.14100
C577        C  0.38676527  0.61526403  0.66375375    -0.01400
C578        C  0.36425637  0.58616629  0.63870480    -0.09400
C579        C  0.37919102  0.57091227  0.61261621    -0.18200
C580        C  0.41735997  0.58391530  0.61121564     0.04200
C581        C  0.44008601  0.61394606  0.63610669     0.18400
C582        C  0.42475758  0.62949635  0.66154130    -0.19600
C583        C  0.47797782  0.62772215  0.63634489    -0.20900
C584        C  0.49386062  0.61178384  0.61308498    -0.19400
C585        C  0.47231136  0.58185005  0.58872266     0.19800
C586        C  0.43378309  0.56775399  0.58687793     0.01900
C587        C  0.41346421  0.53773539  0.56128378    -0.14200
C588        C  0.43063603  0.52207994  0.53919048    -0.11900
C589        C  0.46851461  0.53588900  0.54157833     0.01400
C590        C  0.48915272  0.56576870  0.56638672    -0.24100
H591        H  0.33483829  0.57482073  0.63954574     0.09400
H592        H  0.36006190  0.54846777  0.59455918     0.13000
H593        H  0.44250100  0.65190484  0.68084860     0.11700
H594        H  0.49544122  0.65064467  0.65519788     0.12900
H595        H  0.52323732  0.62278127  0.61442370     0.11900
H596        H  0.38426869  0.52560735  0.55782290     0.09000
H597        H  0.41418877  0.49883708  0.52027289     0.12300
H598        H  0.51852281  0.57666557  0.56804589     0.14100
C599        C  0.37867114  0.60995585  0.83701227    -0.01400
C600        C  0.36275753  0.57161002  0.83860882    -0.09400
C601        C  0.37720235  0.55478732  0.86278275    -0.18200
C602        C  0.40823161  0.57585616  0.88650433     0.04200
C603        C  0.42265570  0.61460228  0.88713337     0.18400
C604        C  0.40809812  0.63129820  0.86217722    -0.19600
C605        C  0.45200671  0.63643892  0.91201859    -0.20900
C606        C  0.46802762  0.62070985  0.93547056    -0.19400
C607        C  0.45571010  0.58290481  0.93381899     0.19800
C608        C  0.42568736  0.55990276  0.90920085     0.01900
C609        C  0.41526996  0.52212820  0.90730820    -0.14200
C610        C  0.43373946  0.50784689  0.92912495    -0.11900
C611        C  0.46282963  0.53050011  0.95376983     0.01400
C612        C  0.47373449  0.56802126  0.95601208    -0.24100
H613        H  0.33970413  0.55435351  0.81992681     0.09400
H614        H  0.36355093  0.52521898  0.86200169     0.13000
H615        H  0.42015903  0.66096011  0.86178568     0.11700
H616        H  0.46283721  0.66592455  0.91312259     0.12900
H617        H  0.49081395  0.63837109  0.95429496     0.11900
H618        H  0.39348157  0.50299776  0.88862320     0.09000
H619        H  0.42515476  0.47883010  0.92690302     0.12300
H620        H  0.49676124  0.58573095  0.97456278     0.14100
C621        C  0.46654003  0.93006514  0.53927124    -0.01400
C622        C  0.42874038  0.90658672  0.53764630    -0.09400
C623        C  0.41238945  0.87404277  0.55940413    -0.18200
C624        C  0.43347702  0.86402211  0.58397972     0.04200
C625        C  0.47201317  0.88754827  0.58468139     0.18400
C626        C  0.48808256  0.92028626  0.56262823    -0.19600
C627        C  0.49422500  0.87851683  0.60781394    -0.20900
C628        C  0.47894087  0.84707622  0.63115027    -0.19400
C629        C  0.44101163  0.82404646  0.63228198     0.19800
C630        C  0.41771033  0.83200738  0.60848982     0.01900
C631        C  0.37957479  0.80817008  0.61122629    -0.14200
C632        C  0.36520694  0.77861266  0.63747984    -0.11900
C633        C  0.38817261  0.77127532  0.66150872     0.01400
C634        C  0.42617066  0.79368853  0.65802613    -0.24100
H635        H  0.41164920  0.91375067  0.51978481     0.09400
H636        H  0.38317943  0.85753490  0.55655637     0.13000
H637        H  0.51742585  0.93830004  0.56361770     0.11700
H638        H  0.52362826  0.89613329  0.60821768     0.12900
H639        H  0.49689218  0.84114272  0.64909090     0.11900
H640        H  0.35999515  0.81208371  0.59422143     0.09000
H641        H  0.33577559  0.76164753  0.63931952     0.12300
H642        H  0.44424862  0.78845173  0.67659951     0.14100
C643        C  0.37720403  0.77014285  0.83539229    -0.01400
C644        C  0.35923063  0.79089553  0.83962569    -0.09400
C645        C  0.37344353  0.82178304  0.86396486    -0.18200
C646        C  0.40632940  0.83301982  0.88506762     0.04200
C647        C  0.42301313  0.81036336  0.88301011     0.18400
C648        C  0.40856267  0.77946609  0.85811547    -0.19600
C649        C  0.45451028  0.81918424  0.90507441    -0.20900
C650        C  0.47038225  0.85061128  0.92840974    -0.19400
C651        C  0.45566749  0.87444225  0.92945628     0.19800
C652        C  0.42349283  0.86611232  0.90767442     0.01900
C653        C  0.41063449  0.89189642  0.90841722    -0.14200
C654        C  0.42883995  0.92437533  0.93008053    -0.11900
C655        C  0.45998579  0.93195741  0.95204305     0.01400
C656        C  0.47332016  0.90694790  0.95163590    -0.24100
H657        H  0.33466407  0.78406528  0.82291713     0.09400
H658        H  0.35819706  0.83644689  0.86533465     0.13000
H659        H  0.42230570  0.76317879  0.85572813     0.11700
H660        H  0.46712880  0.80180707  0.90403602     0.12900
H661        H  0.49484525  0.85677153  0.94502980     0.11900
H662        H  0.38701372  0.88814134  0.89200275     0.09000
H663        H  0.41833127  0.94356976  0.93005699     0.12300
H664        H  0.49780217  0.91313919  0.96827832     0.14100
loop_ 
_geom_bond_atom_site_label_1 
_geom_bond_atom_site_label_2 
_geom_bond_distance 
_geom_bond_site_symmetry_2 
_ccdc_geom_bond_type 
Fe1          O17   2.072       .  S
Fe1           O7   2.075       .  S
Fe1          O14   2.069       .  S
Fe1           O6   2.064       .  S
Fe1          O12   1.983       .  S
Fe2           O5   2.057       .  S
Fe2           O9   2.070       .  S
Fe2          O13   2.054       .  S
Fe2          O18   2.075       .  S
Fe2          O12   1.977       .  S
Fe3          O21   2.064       .  S
Fe3           O8   2.069       .  S
Fe3          O15   2.062       .  S
Fe3           O4   2.062       .  S
Fe3          O12   1.977       .  S
O4           C11   1.269       .  A
O5           C19   1.266       .  A
O6           C11   1.269       .  A
O7           C10   1.271       .  A
O8           C20   1.271       .  A
O9           C22   1.272       .  A
C10          O15   1.269       .  A
C10         C301   1.485       .  S
C11         C311   1.482       .  S
O13          C16   1.266       .  A
O14          C16   1.268       .  A
C16         C267   1.481       .  S
O17          C22   1.272       .  A
O18          C20   1.272       .  A
C19          O21   1.267       .  A
C19         C201   1.483       .  S
C20         C235   1.488       .  S
C22         C245   1.485       .  S
Fe23         O39   2.059       .  S
Fe23         O29   2.058       .  S
Fe23         O36   2.058       .  S
Fe23         O28   2.062       .  S
Fe23         O34   1.976       .  S
Fe24         O27   2.076       .  S
Fe24         O31   2.070       .  S
Fe24         O35   2.072       .  S
Fe24         O40   2.066       .  S
Fe24         O34   1.982       .  S
Fe25         O43   2.057       .  S
Fe25         O30   2.072       .  S
Fe25         O37   2.073       .  S
Fe25         O26   2.066       .  S
Fe25         O34   1.979       .  S
O26          C33   1.271       .  A
O27          C41   1.271       .  A
O28          C33   1.271       .  A
O29          C32   1.266       .  A
O30          C42   1.271       .  A
O31          C44   1.272       .  A
C32          O37   1.269       .  A
C32         C113   1.487       .  S
C33         C135   1.481       .  S
O35          C38   1.269       .  A
O36          C38   1.266       .  A
C38         C157   1.485       .  S
O39          C44   1.270       .  A
O40          C42   1.269       .  A
C41          O43   1.268       .  A
C41         C103   1.483       .  S
C42          C81   1.485       .  S
C44         C191   1.482       .  S
C45         C223   1.481       .  S
C45          C50   1.405   1_455  A
C45         C378   1.411       .  A
C46         C213   1.477       .  S
C46          C47   1.402       .  A
C46         C377   1.411   1_554  A
C47          C48   1.402   1_455  A
C47          H52   1.085       .  S
C48         C147   1.476       .  S
C48         C381   1.412   1_554  A
C49         C125   1.483       .  S
C49          C50   1.405       .  A
C49         C380   1.412       .  A
C50          H51   1.084       .  S
C53         C257   1.486       .  S
C53          C58   1.406       .  A
C53         C386   1.415   1_554  A
C54         C279   1.482       .  S
C54          C55   1.404       .  A
C54         C385   1.415       .  A
C55          C56   1.401       .  A
C55          H60   1.085       .  S
C56         C179   1.479       .  S
C56         C389   1.411       .  A
C57         C169   1.482       .  S
C57          C58   1.404       .  A
C57         C388   1.411   1_554  A
C58          H59   1.084       .  S
C61         C323   1.480       .  S
C61          C66   1.404   1_565  A
C61         C394   1.414       .  A
C62         C289   1.486       .  S
C62          C63   1.403       .  A
C62         C393   1.414   1_554  A
C63          C64   1.405   1_565  A
C63          H68   1.084       .  S
C64          C69   1.485       .  S
C64         C397   1.416   1_554  A
C65          C91   1.484       .  S
C65          C66   1.404       .  A
C65         C396   1.416       .  A
C66          H67   1.085       .  S
C69          C70   1.398       .  A
C69          C74   1.402       .  A
C70          C71   1.395       .  A
C70          H83   1.083       .  S
C71          C72   1.416       .  A
C71          H84   1.077       .  S
C72          C78   1.430       .  A
C72          C73   1.423       .  A
C73          C75   1.400       .  A
C73          C74   1.405       .  A
C74          H85   1.085       .  S
C75          C76   1.391       .  A
C75          H86   1.084       .  S
C76          C77   1.400       .  A
C76          H87   1.084       .  S
C77          C78   1.422       .  A
C77          C82   1.407       .  A
C78          C79   1.414       .  A
C79          C80   1.395       .  A
C79          H88   1.078       .  S
C80          C81   1.402       .  A
C80          H89   1.083       .  S
C81          C82   1.404       .  A
C82          H90   1.085       .  S
C91          C92   1.399       .  A
C91          C96   1.400       .  A
C92          C93   1.394       .  A
C92         H105   1.083       .  S
C93          C94   1.415       .  A
C93         H106   1.077       .  S
C94         C100   1.430       .  A
C94          C95   1.423       .  A
C95          C97   1.400       .  A
C95          C96   1.406       .  A
C96         H107   1.085       .  S
C97          C98   1.391       .  A
C97         H108   1.084       .  S
C98          C99   1.400       .  A
C98         H109   1.084       .  S
C99         C100   1.422       .  A
C99         C104   1.407       .  A
C100        C101   1.414       .  A
C101        C102   1.395       .  A
C101        H110   1.077       .  S
C102        C103   1.401       .  A
C102        H111   1.083       .  S
C103        C104   1.403       .  A
C104        H112   1.084       .  S
C113        C114   1.402       .  A
C113        C118   1.404       .  A
C114        C115   1.400       .  A
C114        H127   1.083       .  S
C115        C116   1.416       .  A
C115        H128   1.077       .  S
C116        C122   1.432       .  A
C116        C117   1.421       .  A
C117        C119   1.400       .  A
C117        C118   1.405       .  A
C118        H129   1.084       .  S
C119        C120   1.390       .  A
C119        H130   1.084       .  S
C120        C121   1.399       .  A
C120        H131   1.084       .  S
C121        C122   1.424       .  A
C121        C126   1.406       .  A
C122        C123   1.415       .  A
C123        C124   1.397       .  A
C123        H132   1.077       .  S
C124        C125   1.399       .  A
C124        H133   1.083       .  S
C125        C126   1.398       .  A
C126        H134   1.085       .  S
C135        C136   1.402       .  A
C135        C140   1.402       .  A
C136        C137   1.396       .  A
C136        H149   1.083       .  S
C137        C138   1.415       .  A
C137        H150   1.078       .  S
C138        C144   1.429       .  A
C138        C139   1.422       .  A
C139        C141   1.399       .  A
C139        C140   1.403       .  A
C140        H151   1.085       .  S
C141        C142   1.389       .  A
C141        H152   1.084       .  S
C142        C143   1.399       .  A
C142        H153   1.084       .  S
C143        C144   1.423       .  A
C143        C148   1.402       .  A
C144        C145   1.416       .  A
C145        C146   1.396       .  A
C145        H154   1.078       .  S
C146        C147   1.396       .  A
C146        H155   1.083       .  S
C147        C148   1.398       .  A
C148        H156   1.085       .  S
C157        C158   1.403       .  A
C157        C162   1.402       .  A
C158        C159   1.397       .  A
C158        H171   1.083       .  S
C159        C160   1.414       .  A
C159        H172   1.078       .  S
C160        C166   1.431       .  A
C160        C161   1.423       .  A
C161        C163   1.399       .  A
C161        C162   1.407       .  A
C162        H173   1.084       .  S
C163        C164   1.390       .  A
C163        H174   1.084       .  S
C164        C165   1.399       .  A
C164        H175   1.084       .  S
C165        C166   1.423       .  A
C165        C170   1.404       .  A
C166        C167   1.417       .  A
C167        C168   1.398       .  A
C167        H176   1.077       .  S
C168        C169   1.397       .  A
C168        H177   1.083       .  S
C169        C170   1.399       .  A
C170        H178   1.085       .  S
C179        C180   1.397       .  A
C179        C184   1.398       .  A
C180        C181   1.395       .  A
C180        H193   1.084       .  S
C181        C182   1.416       .  A
C181        H194   1.077       .  S
C182        C188   1.429       .  A
C182        C183   1.423       .  A
C183        C185   1.399       .  A
C183        C184   1.405       .  A
C184        H195   1.085       .  S
C185        C186   1.390       .  A
C185        H196   1.084       .  S
C186        C187   1.400       .  A
C186        H197   1.084       .  S
C187        C188   1.422       .  A
C187        C192   1.405       .  A
C188        C189   1.414       .  A
C189        C190   1.394       .  A
C189        H198   1.077       .  S
C190        C191   1.402       .  A
C190        H199   1.083       .  S
C191        C192   1.403       .  A
C192        H200   1.084       .  S
C201        C202   1.401       .  A
C201        C206   1.403       .  A
C202        C203   1.397       .  A
C202        H215   1.083       .  S
C203        C204   1.416       .  A
C203        H216   1.077       .  S
C204        C210   1.430       .  A
C204        C205   1.421       .  A
C205        C207   1.399       .  A
C205        C206   1.403       .  A
C206        H217   1.084       .  S
C207        C208   1.389       .  A
C207        H218   1.084       .  S
C208        C209   1.398       .  A
C208        H551   1.084       .  S
C209        C210   1.424       .  A
C209        C214   1.404       .  A
C210        C211   1.415       .  A
C211        C212   1.396       .  A
C211        H220   1.077       .  S
C212        C213   1.398       .  A
C212        H221   1.084       .  S
C213        C214   1.397       .  A
C214        H554   1.085       .  S
H219        C540   1.084       .  S
H222        C546   1.085       .  S
C223        C224   1.396       .  A
C223        C228   1.400       .  A
C224        C225   1.398       .  A
C224        H237   1.083       .  S
C225        C226   1.417       .  A
C225        H238   1.077       .  S
C226        C232   1.431       .  A
C226        C227   1.422       .  A
C227        C229   1.400       .  A
C227        C228   1.405       .  A
C228        H239   1.085       .  S
C229        C230   1.391       .  A
C229        H240   1.084       .  S
C230        C231   1.400       .  A
C230        H241   1.084       .  S
C231        C232   1.423       .  A
C231        C236   1.408       .  A
C232        C233   1.413       .  A
C233        C234   1.396       .  A
C233        H242   1.077       .  S
C234        C235   1.403       .  A
C234        H243   1.083       .  S
C235        C236   1.404       .  A
C236        H244   1.084       .  S
C245        C246   1.402       .  A
C245        C250   1.403       .  A
C246        C247   1.399       .  A
C246        H259   1.083       .  S
C247        C248   1.416       .  A
C247        H260   1.078       .  S
C248        C254   1.432       .  A
C248        C249   1.422       .  A
C249        C251   1.399       .  A
C249        C250   1.405       .  A
C250        H261   1.084       .  S
C251        C252   1.389       .  A
C251        H262   1.084       .  S
C252        C253   1.398       .  A
C252        H263   1.084       .  S
C253        C254   1.424       .  A
C253        C258   1.405       .  A
C254        C255   1.416       .  A
C255        C256   1.398       .  A
C255        H264   1.078       .  S
C256        C257   1.401       .  A
C256        H265   1.083       .  S
C257        C258   1.398       .  A
C258        H266   1.085       .  S
C267        C268   1.402       .  A
C267        C272   1.403       .  A
C268        C269   1.392       .  A
C268        H281   1.083       .  S
C269        C270   1.412       .  A
C269        H282   1.077       .  S
C270        C276   1.428       .  A
C270        C271   1.423       .  A
C271        C273   1.400       .  A
C271        C272   1.407       .  A
C272        H283   1.084       .  S
C273        C274   1.392       .  A
C273        H284   1.084       .  S
C274        C275   1.400       .  A
C274        H285   1.084       .  S
C275        C276   1.422       .  A
C275        C280   1.404       .  A
C276        C277   1.416       .  A
C277        C278   1.394       .  A
C277        H286   1.077       .  S
C278        C279   1.397       .  A
C278        H287   1.083       .  S
C279        C280   1.401       .  A
C280        H288   1.085       .  S
C289        C290   1.399       .  A
C289        C294   1.400       .  A
C290        C291   1.396       .  A
C290        H303   1.083       .  S
C291        C292   1.415       .  A
C291        H304   1.077       .  S
C292        C298   1.431       .  A
C292        C293   1.423       .  A
C293        C295   1.400       .  A
C293        C294   1.407       .  A
C294        H305   1.084       .  S
C295        C296   1.391       .  A
C295        H306   1.084       .  S
C296        C297   1.400       .  A
C296        H307   1.084       .  S
C297        C298   1.423       .  A
C297        C302   1.408       .  A
C298        C299   1.414       .  A
C299        C300   1.396       .  A
C299        H308   1.077       .  S
C300        C301   1.402       .  A
C300        H309   1.083       .  S
C301        C302   1.404       .  A
C302        H310   1.084       .  S
C311        C312   1.401       .  A
C311        C316   1.403       .  A
C312        C313   1.394       .  A
C312        H325   1.083       .  S
C313        C314   1.413       .  A
C313        H326   1.077       .  S
C314        C320   1.428       .  A
C314        C315   1.422       .  A
C315        C317   1.400       .  A
C315        C316   1.405       .  A
C316        H327   1.084       .  S
C317        C318   1.391       .  A
C317        H328   1.084       .  S
C318        C319   1.400       .  A
C318        H329   1.084       .  S
C319        C320   1.422       .  A
C319        C324   1.404       .  A
C320        C321   1.416       .  A
C321        C322   1.395       .  A
C321        H330   1.077       .  S
C322        C323   1.397       .  A
C322        H331   1.083       .  S
C323        C324   1.400       .  A
C324        H332   1.085       .  S
Fe333       O349   2.072       .  S
Fe333       O339   2.075       .  S
Fe333       O346   2.069       .  S
Fe333       O338   2.064       .  S
Fe333       O344   1.983       .  S
Fe334       O337   2.057       .  S
Fe334       O341   2.070       .  S
Fe334       O345   2.054       .  S
Fe334       O350   2.075       .  S
Fe334       O344   1.977       .  S
Fe335       O353   2.064       .  S
Fe335       O340   2.069       .  S
Fe335       O347   2.062       .  S
Fe335       O336   2.062       .  S
Fe335       O344   1.977       .  S
O336        C343   1.269       .  A
O337        C351   1.266       .  A
O338        C343   1.269       .  A
O339        C342   1.271       .  A
O340        C352   1.271       .  A
O341        C354   1.272       .  A
C342        O347   1.269       .  A
C342        C633   1.485       .  S
C343        C643   1.482       .  S
O345        C348   1.266       .  A
O346        C348   1.268       .  A
C348        C599   1.481       .  S
O349        C354   1.272       .  A
O350        C352   1.272       .  A
C351        O353   1.267       .  A
C351        C533   1.483       .  S
C352        C567   1.488       .  S
C354        C577   1.485       .  S
Fe355       O371   2.059       .  S
Fe355       O361   2.058       .  S
Fe355       O368   2.058       .  S
Fe355       O360   2.062       .  S
Fe355       O366   1.976       .  S
Fe356       O359   2.076       .  S
Fe356       O363   2.070       .  S
Fe356       O367   2.072       .  S
Fe356       O372   2.066       .  S
Fe356       O366   1.982       .  S
Fe357       O375   2.057       .  S
Fe357       O362   2.072       .  S
Fe357       O369   2.073       .  S
Fe357       O358   2.066       .  S
Fe357       O366   1.979       .  S
O358        C365   1.271       .  A
O359        C373   1.271       .  A
O360        C365   1.271       .  A
O361        C364   1.266       .  A
O362        C374   1.271       .  A
O363        C376   1.272       .  A
C364        O369   1.269       .  A
C364        C445   1.487       .  S
C365        C467   1.481       .  S
O367        C370   1.269       .  A
O368        C370   1.266       .  A
C370        C489   1.485       .  S
O371        C376   1.270       .  A
O372        C374   1.269       .  A
C373        O375   1.268       .  A
C373        C435   1.483       .  S
C374        C413   1.485       .  S
C376        C523   1.482       .  S
C377        C555   1.481       .  S
C377        C382   1.405   1_455  A
C378        C545   1.477       .  S
C378        C379   1.402       .  A
C379        C380   1.402   1_455  A
C379        H384   1.085       .  S
C380        C479   1.476       .  S
C381        C457   1.483       .  S
C381        C382   1.405       .  A
C382        H383   1.084       .  S
C385        C589   1.486       .  S
C385        C390   1.406       .  A
C386        C611   1.482       .  S
C386        C387   1.404       .  A
C387        C388   1.401       .  A
C387        H392   1.085       .  S
C388        C511   1.479       .  S
C389        C501   1.482       .  S
C389        C390   1.404       .  A
C390        H391   1.084       .  S
C393        C655   1.480       .  S
C393        C398   1.404   1_565  A
C394        C621   1.486       .  S
C394        C395   1.403       .  A
C395        C396   1.405   1_565  A
C395        H400   1.084       .  S
C396        C401   1.485       .  S
C397        C423   1.484       .  S
C397        C398   1.404       .  A
C398        H399   1.085       .  S
C401        C402   1.398       .  A
C401        C406   1.402       .  A
C402        C403   1.395       .  A
C402        H415   1.083       .  S
C403        C404   1.416       .  A
C403        H416   1.077       .  S
C404        C410   1.430       .  A
C404        C405   1.423       .  A
C405        C407   1.400       .  A
C405        C406   1.405       .  A
C406        H417   1.085       .  S
C407        C408   1.391       .  A
C407        H418   1.084       .  S
C408        C409   1.400       .  A
C408        H419   1.084       .  S
C409        C410   1.422       .  A
C409        C414   1.407       .  A
C410        C411   1.414       .  A
C411        C412   1.395       .  A
C411        H420   1.078       .  S
C412        C413   1.402       .  A
C412        H421   1.083       .  S
C413        C414   1.404       .  A
C414        H422   1.085       .  S
C423        C424   1.399       .  A
C423        C428   1.400       .  A
C424        C425   1.394       .  A
C424        H437   1.083       .  S
C425        C426   1.415       .  A
C425        H438   1.077       .  S
C426        C432   1.430       .  A
C426        C427   1.423       .  A
C427        C429   1.400       .  A
C427        C428   1.406       .  A
C428        H439   1.085       .  S
C429        C430   1.391       .  A
C429        H440   1.084       .  S
C430        C431   1.400       .  A
C430        H441   1.084       .  S
C431        C432   1.422       .  A
C431        C436   1.407       .  A
C432        C433   1.414       .  A
C433        C434   1.395       .  A
C433        H442   1.077       .  S
C434        C435   1.401       .  A
C434        H443   1.083       .  S
C435        C436   1.403       .  A
C436        H444   1.084       .  S
C445        C446   1.402       .  A
C445        C450   1.404       .  A
C446        C447   1.400       .  A
C446        H459   1.083       .  S
C447        C448   1.416       .  A
C447        H460   1.077       .  S
C448        C454   1.432       .  A
C448        C449   1.421       .  A
C449        C451   1.400       .  A
C449        C450   1.405       .  A
C450        H461   1.084       .  S
C451        C452   1.390       .  A
C451        H462   1.084       .  S
C452        C453   1.399       .  A
C452        H463   1.084       .  S
C453        C454   1.424       .  A
C453        C458   1.406       .  A
C454        C455   1.415       .  A
C455        C456   1.397       .  A
C455        H464   1.077       .  S
C456        C457   1.399       .  A
C456        H465   1.083       .  S
C457        C458   1.398       .  A
C458        H466   1.085       .  S
C467        C468   1.402       .  A
C467        C472   1.402       .  A
C468        C469   1.396       .  A
C468        H481   1.083       .  S
C469        C470   1.415       .  A
C469        H482   1.078       .  S
C470        C476   1.429       .  A
C470        C471   1.422       .  A
C471        C473   1.399       .  A
C471        C472   1.403       .  A
C472        H483   1.085       .  S
C473        C474   1.389       .  A
C473        H484   1.084       .  S
C474        C475   1.399       .  A
C474        H485   1.084       .  S
C475        C476   1.423       .  A
C475        C480   1.402       .  A
C476        C477   1.416       .  A
C477        C478   1.396       .  A
C477        H486   1.078       .  S
C478        C479   1.396       .  A
C478        H487   1.083       .  S
C479        C480   1.398       .  A
C480        H488   1.085       .  S
C489        C490   1.403       .  A
C489        C494   1.402       .  A
C490        C491   1.397       .  A
C490        H503   1.083       .  S
C491        C492   1.414       .  A
C491        H504   1.078       .  S
C492        C498   1.431       .  A
C492        C493   1.423       .  A
C493        C495   1.399       .  A
C493        C494   1.407       .  A
C494        H505   1.084       .  S
C495        C496   1.390       .  A
C495        H506   1.084       .  S
C496        C497   1.399       .  A
C496        H507   1.084       .  S
C497        C498   1.423       .  A
C497        C502   1.404       .  A
C498        C499   1.417       .  A
C499        C500   1.398       .  A
C499        H508   1.077       .  S
C500        C501   1.397       .  A
C500        H509   1.083       .  S
C501        C502   1.399       .  A
C502        H510   1.085       .  S
C511        C512   1.397       .  A
C511        C516   1.398       .  A
C512        C513   1.395       .  A
C512        H525   1.084       .  S
C513        C514   1.416       .  A
C513        H526   1.077       .  S
C514        C520   1.429       .  A
C514        C515   1.423       .  A
C515        C517   1.399       .  A
C515        C516   1.405       .  A
C516        H527   1.085       .  S
C517        C518   1.390       .  A
C517        H528   1.084       .  S
C518        C519   1.400       .  A
C518        H529   1.084       .  S
C519        C520   1.422       .  A
C519        C524   1.405       .  A
C520        C521   1.414       .  A
C521        C522   1.394       .  A
C521        H530   1.077       .  S
C522        C523   1.402       .  A
C522        H531   1.083       .  S
C523        C524   1.403       .  A
C524        H532   1.084       .  S
C533        C534   1.401       .  A
C533        C538   1.403       .  A
C534        C535   1.397       .  A
C534        H547   1.083       .  S
C535        C536   1.416       .  A
C535        H548   1.077       .  S
C536        C542   1.430       .  A
C536        C537   1.421       .  A
C537        C539   1.399       .  A
C537        C538   1.403       .  A
C538        H549   1.084       .  S
C539        C540   1.389       .  A
C539        H550   1.084       .  S
C540        C541   1.398       .  A
C541        C542   1.424       .  A
C541        C546   1.404       .  A
C542        C543   1.415       .  A
C543        C544   1.396       .  A
C543        H552   1.077       .  S
C544        C545   1.398       .  A
C544        H553   1.084       .  S
C545        C546   1.397       .  A
C555        C556   1.396       .  A
C555        C560   1.400       .  A
C556        C557   1.398       .  A
C556        H569   1.083       .  S
C557        C558   1.417       .  A
C557        H570   1.077       .  S
C558        C564   1.431       .  A
C558        C559   1.422       .  A
C559        C561   1.400       .  A
C559        C560   1.405       .  A
C560        H571   1.085       .  S
C561        C562   1.391       .  A
C561        H572   1.084       .  S
C562        C563   1.400       .  A
C562        H573   1.084       .  S
C563        C564   1.423       .  A
C563        C568   1.408       .  A
C564        C565   1.413       .  A
C565        C566   1.396       .  A
C565        H574   1.077       .  S
C566        C567   1.403       .  A
C566        H575   1.083       .  S
C567        C568   1.404       .  A
C568        H576   1.084       .  S
C577        C578   1.402       .  A
C577        C582   1.403       .  A
C578        C579   1.399       .  A
C578        H591   1.083       .  S
C579        C580   1.416       .  A
C579        H592   1.078       .  S
C580        C586   1.432       .  A
C580        C581   1.422       .  A
C581        C583   1.399       .  A
C581        C582   1.405       .  A
C582        H593   1.085       .  S
C583        C584   1.389       .  A
C583        H594   1.084       .  S
C584        C585   1.398       .  A
C584        H595   1.084       .  S
C585        C586   1.424       .  A
C585        C590   1.405       .  A
C586        C587   1.416       .  A
C587        C588   1.398       .  A
C587        H596   1.078       .  S
C588        C589   1.401       .  A
C588        H597   1.083       .  S
C589        C590   1.398       .  A
C590        H598   1.085       .  S
C599        C600   1.402       .  A
C599        C604   1.403       .  A
C600        C601   1.392       .  A
C600        H613   1.083       .  S
C601        C602   1.412       .  A
C601        H614   1.077       .  S
C602        C608   1.428       .  A
C602        C603   1.423       .  A
C603        C605   1.400       .  A
C603        C604   1.407       .  A
C604        H615   1.084       .  S
C605        C606   1.392       .  A
C605        H616   1.084       .  S
C606        C607   1.400       .  A
C606        H617   1.084       .  S
C607        C608   1.422       .  A
C607        C612   1.404       .  A
C608        C609   1.416       .  A
C609        C610   1.394       .  A
C609        H618   1.077       .  S
C610        C611   1.397       .  A
C610        H619   1.083       .  S
C611        C612   1.401       .  A
C612        H620   1.085       .  S
C621        C622   1.399       .  A
C621        C626   1.400       .  A
C622        C623   1.396       .  A
C622        H635   1.083       .  S
C623        C624   1.415       .  A
C623        H636   1.077       .  S
C624        C630   1.431       .  A
C624        C625   1.423       .  A
C625        C627   1.400       .  A
C625        C626   1.407       .  A
C626        H637   1.084       .  S
C627        C628   1.391       .  A
C627        H638   1.084       .  S
C628        C629   1.400       .  A
C628        H639   1.084       .  S
C629        C630   1.423       .  A
C629        C634   1.408       .  A
C630        C631   1.414       .  A
C631        C632   1.396       .  A
C631        H640   1.077       .  S
C632        C633   1.402       .  A
C632        H641   1.083       .  S
C633        C634   1.404       .  A
C634        H642   1.084       .  S
C643        C644   1.401       .  A
C643        C648   1.403       .  A
C644        C645   1.394       .  A
C644        H657   1.083       .  S
C645        C646   1.413       .  A
C645        H658   1.077       .  S
C646        C652   1.428       .  A
C646        C647   1.422       .  A
C647        C649   1.400       .  A
C647        C648   1.405       .  A
C648        H659   1.084       .  S
C649        C650   1.391       .  A
C649        H660   1.084       .  S
C650        C651   1.400       .  A
C650        H661   1.084       .  S
C651        C652   1.422       .  A
C651        C656   1.404       .  A
C652        C653   1.416       .  A
C653        C654   1.395       .  A
C653        H662   1.077       .  S
C654        C655   1.397       .  A
C654        H663   1.083       .  S
C655        C656   1.400       .  A
C656        H664   1.085       .  S
