geometry optimzed in LAMMPS
_audit_creation_date              2020-11-30 
_audit_creation_method            'lammps2cif' 
_symmetry_space_group_name_H-M    'P1' 
_symmetry_Int_Tables_number       1 
_symmetry_cell_setting            triclinic 
loop_ 
_symmetry_equiv_pos_as_xyz 
  x,y,z 
_cell_length_a                    31.26207071 
_cell_length_b                    32.17704801428067 
_cell_length_c                    26.55718840180513 
_cell_angle_alpha                 90.00891443496565 
_cell_angle_beta                  89.82404372777096 
_cell_angle_gamma                 122.56828877388544 
loop_ 
_atom_site_label 
_atom_site_type_symbol 
_atom_site_fract_x 
_atom_site_fract_y 
_atom_site_fract_z 
_atom_site_charge 
O1          O  0.20201202  0.66129936  0.17150853    -0.81800
O2          O  0.25748947  0.87571472  0.23311274    -0.66500
O3          O  0.19368045  0.74211549  0.19244207    -1.14300
C4          C  0.23426312  0.80845089  0.02891017     1.05100
O5          O  0.22151288  0.89607689  0.17463365    -0.79700
O6          O  0.15077433  0.81477305  0.11771873    -0.67300
Ni7        Ni  0.21138984  0.70166221  0.22860427     1.34900
C8          C  0.12900463  0.76972269  0.10449650     0.83800
O9          O  0.20438094  0.79193368  0.28304672    -0.80300
O10         O  0.22082070  0.73363281  0.29273377    -0.90500
C11         C  0.24862430  0.90638221  0.21410300     0.83400
O12         O  0.28144782  0.74418560  0.21248283    -0.68700
O13         O  0.22427868  0.83892827  0.04727144    -0.88000
C14         C  0.30903339  0.78982034  0.22285896     0.84200
C15         C  0.21257655  0.76509110  0.31107163     1.05800
H16         H  0.28157398  0.84353304  0.14313954     0.37600
O17         O  0.24504134  0.82565977  0.14615457    -1.10700
O18         O  0.15242916  0.74747912  0.10443725    -0.67300
Ni19       Ni  0.21769072  0.76019378  0.12387269     1.26300
O20         O  0.29078078  0.81676026  0.22934804    -0.67600
O21         O  0.24161915  0.78046374  0.05644187    -0.79900
C22         C  0.19314172  0.66052655  0.12487086     0.83600
O23         O  0.19222143  0.69471220  0.10250398    -0.67000
Ni24       Ni  0.22243847  0.86366033  0.11308269     1.27400
Ni25       Ni  0.22552752  0.80886736  0.21467290     1.26100
H26         H  0.15728243  0.72653616  0.19403047     0.38100
O27         O  0.19872025  0.66020678  0.68082030    -0.81800
O28         O  0.27004617  0.88197331  0.72110362    -0.66500
O29         O  0.19350726  0.74320286  0.70057963    -1.13100
C30         C  0.21270719  0.79106108  0.52822474     1.05100
O31         O  0.22022339  0.89194762  0.67124841    -0.79700
O32         O  0.14615719  0.81474401  0.61575258    -0.67300
Ni33       Ni  0.21432170  0.70475258  0.73566556     1.34900
C34         C  0.11821566  0.76800928  0.61613823     0.83800
O35         O  0.22416639  0.80666045  0.78368583    -0.80300
O36         O  0.23145826  0.74248071  0.79723251    -0.90500
C37         C  0.25407926  0.90827394  0.70533389     0.83400
O38         O  0.28226812  0.74275766  0.71233364    -0.68700
O39         O  0.21613644  0.83003400  0.54478828    -0.88000
C40         C  0.31271376  0.78907383  0.71449617     0.84200
C41         C  0.23053008  0.77932062  0.81293249     1.05800
H42         H  0.27371944  0.83145450  0.63203021     0.37600
O43         O  0.23875999  0.81806964  0.64142308    -1.10700
O44         O  0.13624413  0.74101054  0.62169095    -0.67300
Ni45       Ni  0.20159199  0.74917087  0.62840638     1.26300
O46         O  0.29775513  0.81887017  0.71802455    -0.67600
O47         O  0.21055136  0.75804379  0.55685513    -0.79900
C48         C  0.17516661  0.64985599  0.63936261     0.83600
O49         O  0.16635593  0.67957133  0.61744108    -0.67000
Ni50       Ni  0.21833037  0.85821766  0.60960719     1.27400
Ni51       Ni  0.23250664  0.81274617  0.71257653     1.26100
H52         H  0.15857362  0.73047443  0.70951182     0.38100
O53         O  0.47641713  0.79278064  0.34326024    -0.81800
O54         O  0.62663550  0.72434771  0.38641752    -0.66500
O55         O  0.57129120  0.80336721  0.36255838    -1.13100
C56         C  0.59436293  0.77892367  0.19271028     1.05100
O57         O  0.69050048  0.76948110  0.33390167    -0.79700
O58         O  0.69172162  0.84545155  0.28588220    -0.67300
Ni59       Ni  0.51485452  0.79432925  0.40073636     1.34900
C60         C  0.67339530  0.87218576  0.28113849     0.83800
O61         O  0.60039695  0.77171477  0.44812674    -0.80300
O62         O  0.54615271  0.79563245  0.46322466    -0.90500
C63         C  0.66954610  0.73679508  0.36833509     0.83400
O64         O  0.47717487  0.72424432  0.40198133    -0.68700
O65         O  0.63455310  0.78244763  0.20924416    -0.88000
C66         C  0.48828404  0.69188273  0.39644069     0.84200
C67         C  0.57701577  0.78387320  0.47784146     1.05800
H68         H  0.57265185  0.72115198  0.29728522     0.37600
O69         O  0.59610775  0.75540036  0.30578162    -1.10700
O70         O  0.62591564  0.85425045  0.27965812    -0.67300
Ni71       Ni  0.56463443  0.79083875  0.29137604     1.26300
O72         O  0.53227433  0.70198309  0.38363155    -0.67600
O73         O  0.56050635  0.77711092  0.22118592    -0.79900
C74         C  0.48915417  0.81350023  0.30030346     0.83600
O75         O  0.52994378  0.82388599  0.27860661    -0.67000
Ni76       Ni  0.65952108  0.77620338  0.27358741     1.27400
Ni77       Ni  0.59792316  0.76307130  0.37679679     1.26100
H78         H  0.59854936  0.83709127  0.36829329     0.38100
O79         O  0.47321588  0.78843177  0.83492374    -0.81800
O80         O  0.62401340  0.72384993  0.89301625    -0.66500
O81         O  0.56686263  0.79934399  0.86067790    -1.13100
C82         C  0.59293988  0.76859094  0.69279399     1.05100
O83         O  0.68686483  0.76343673  0.83796437    -0.79700
O84         O  0.68987743  0.83583086  0.78300277    -0.67300
Ni85       Ni  0.50739215  0.78795687  0.89521158     1.34900
C86         C  0.67314009  0.86385831  0.77900989     0.83800
O87         O  0.59687712  0.77397815  0.94898033    -0.80300
O88         O  0.53471827  0.78793047  0.96006400    -0.90500
C89         C  0.66709928  0.73561062  0.87624500     0.83400
O90         O  0.47016804  0.71769455  0.89297087    -0.68700
O91         O  0.63073605  0.76849128  0.71064046    -0.88000
C92         C  0.48390077  0.68706214  0.89205338     0.84200
C93         C  0.56957761  0.78269228  0.97705091     1.05800
H94         H  0.56840524  0.71495640  0.80134741     0.37600
O95         O  0.59286390  0.74938292  0.80819851    -1.10700
O96         O  0.62601376  0.84782930  0.77973801    -0.67300
Ni97       Ni  0.56320243  0.78562941  0.79002389     1.26300
O98         O  0.52982355  0.69945889  0.88682610    -0.67600
O99         O  0.56093024  0.77109858  0.72017637    -0.79900
C100        C  0.48895045  0.80924967  0.79222657     0.83600
O101        O  0.53105596  0.81999851  0.77376982    -0.67000
Ni102      Ni  0.65539480  0.76591816  0.77637011     1.27400
Ni103      Ni  0.59454330  0.76096233  0.87868365     1.26100
H104        H  0.59294464  0.83354263  0.86640156     0.38100
O105        O  0.20528016  0.50780374  0.97911989    -0.81800
O106        O  0.28083467  0.37091730  0.94241986    -0.66500
O107        O  0.19229341  0.41520846  0.96693861    -1.13100
C108        C  0.23012716  0.40679736  0.13494809     1.05100
O109        O  0.23643645  0.30861472  0.99570818    -0.79700
O110        O  0.15707450  0.30591390  0.04692847    -0.67300
Ni111      Ni  0.19377628  0.46380089  0.92483356     1.34900
C112        C  0.13017173  0.32352877  0.05752575     0.83800
O113        O  0.22640830  0.38953306  0.88083546    -0.80300
O114        O  0.18226234  0.42442693  0.86650033    -0.90500
C115        C  0.26917746  0.32959092  0.96028984     0.83400
O116        O  0.26484099  0.50198294  0.91034387    -0.68700
O117        O  0.22473597  0.36650178  0.11950315    -0.88000
C118        C  0.30193164  0.49827311  0.92237033     0.84200
C119        C  0.20340757  0.40214623  0.85132345     1.05800
H120        H  0.28350160  0.42269672  0.02937092     0.37600
O121        O  0.24809314  0.39901115  0.02231532    -1.10700
O122        O  0.14815522  0.36957665  0.05647297    -0.67300
Ni123      Ni  0.21094808  0.42850532  0.03647026     1.26300
O124        O  0.29645137  0.46035410  0.94408824    -0.67600
O125        O  0.23124770  0.43868326  0.10531515    -0.79900
C126        C  0.18589991  0.49934624  0.02294461     0.83600
O127        O  0.17615571  0.46151716  0.04770256    -0.67000
Ni128      Ni  0.22947426  0.33942484  0.05599332     1.27400
Ni129      Ni  0.23733171  0.39422697  0.95201565     1.26100
H130        H  0.15821552  0.38646618  0.96477465     0.38100
O131        O  0.20458205  0.51330815  0.49445590    -0.81800
O132        O  0.27562236  0.37203819  0.43729679    -0.66500
O133        O  0.19300494  0.42317415  0.46676692    -1.13100
C134        C  0.21357595  0.39055876  0.63496680     1.05100
O135        O  0.23040989  0.30799686  0.48793048    -0.79700
O136        O  0.15101778  0.30077660  0.54152037    -0.67300
Ni137      Ni  0.20383682  0.48081974  0.43363114     1.34900
C138        C  0.12216391  0.31717480  0.54601213     0.83800
O139        O  0.22756638  0.40120836  0.37878299    -0.80300
O140        O  0.20431930  0.45527068  0.36870401    -0.90500
C141        C  0.26457052  0.33053054  0.45431384     0.83400
O142        O  0.27569900  0.51770990  0.43540196    -0.68700
O143        O  0.21622389  0.35549243  0.61625294    -0.88000
C144        C  0.30878128  0.50674114  0.44033200     0.84200
C145        C  0.21625392  0.42617609  0.35092843     1.05800
H146        H  0.27642751  0.42026767  0.53063627     0.37600
O147        O  0.24162331  0.39677375  0.52124412    -1.10700
O148        O  0.13863940  0.36295684  0.54568292    -0.67300
Ni149      Ni  0.20277876  0.42447837  0.53809742     1.26300
O150        O  0.29810798  0.46293519  0.44706471    -0.67600
O151        O  0.21362423  0.42376609  0.60869833    -0.79900
C152        C  0.17755250  0.49636594  0.53384425     0.83600
O153        O  0.16580264  0.45514254  0.55239530    -0.67000
Ni154      Ni  0.22312330  0.33469914  0.55044686     1.27400
Ni155      Ni  0.23515904  0.39887419  0.44996143     1.26100
H156        H  0.15848360  0.39719575  0.45905746     0.38100
O157        O  0.56450221  0.19268649  0.34433622    -0.81800
O158        O  0.41051099  0.25325209  0.38915032    -0.66500
O159        O  0.46729725  0.17629934  0.36270288    -1.13100
C160        C  0.44577403  0.20142724  0.19413101     1.05100
O161        O  0.34848872  0.21179096  0.33353697    -0.79700
O162        O  0.34853108  0.13449537  0.28965345    -0.67300
Ni163      Ni  0.52217245  0.18348561  0.40150902     1.34900
C164        C  0.36733424  0.10845368  0.28213958     0.83800
O165        O  0.43840364  0.20630033  0.44937994    -0.80300
O166        O  0.48631700  0.17500579  0.46313589    -0.90500
C167        C  0.36862314  0.24233719  0.36978702     0.83400
O168        O  0.55795149  0.25305200  0.40961768    -0.68700
O169        O  0.40430228  0.19505227  0.21082875    -0.88000
C170        C  0.54839020  0.28604776  0.40079483     0.84200
C171        C  0.45883911  0.19062493  0.47865833     1.05800
H172        H  0.46529540  0.25925453  0.29917852     0.37600
O173        O  0.44239503  0.22474693  0.30717563    -1.10700
O174        O  0.41497592  0.12732943  0.27838329    -0.67300
Ni175      Ni  0.47548280  0.19104597  0.29213123     1.26300
O176        O  0.50574068  0.27664792  0.38440203    -0.67600
O177        O  0.48113333  0.20683138  0.22251848    -0.79900
C178        C  0.55418751  0.17427257  0.30039777     0.83600
O179        O  0.51236454  0.16036229  0.27909167    -0.67000
Ni180      Ni  0.37943960  0.20307913  0.27445201     1.27400
Ni181      Ni  0.44017717  0.21562711  0.37812381     1.26100
H182        H  0.43985070  0.14252203  0.36739784     0.38100
O183        O  0.56363357  0.18710148  0.83892556    -0.81800
O184        O  0.41285880  0.24887798  0.89350270    -0.66500
O185        O  0.46807547  0.17139561  0.86337988    -1.13100
C186        C  0.44252097  0.19803230  0.69479453     1.05100
O187        O  0.35046964  0.20970811  0.83863736    -0.79700
O188        O  0.34623132  0.13503817  0.78482010    -0.67300
Ni189      Ni  0.52542874  0.18034772  0.89883774     1.34900
C190        C  0.36264440  0.10656833  0.78160845     0.83800
O191        O  0.43929295  0.19872174  0.95099377    -0.80300
O192        O  0.49318511  0.17391963  0.96237224    -0.90500
C193        C  0.37147093  0.23995586  0.87491827     0.83400
O194        O  0.56204538  0.25029153  0.90551446    -0.68700
O195        O  0.40598135  0.20062700  0.71224070    -0.88000
C196        C  0.55012846  0.28216296  0.90156733     0.84200
C197        C  0.46212967  0.18467066  0.97918697     1.05800
H198        H  0.46824678  0.25526430  0.80200487     0.37600
O199        O  0.44342292  0.22100421  0.80937256    -1.10700
O200        O  0.40957390  0.12170320  0.78312063    -0.67300
Ni201      Ni  0.47276112  0.18393127  0.79260031     1.26300
O202        O  0.50636970  0.27166539  0.88798000    -0.67600
O203        O  0.47508499  0.19663296  0.72219430    -0.79900
C204        C  0.54925513  0.16409443  0.79729435     0.83600
O205        O  0.50619933  0.14987502  0.77856647    -0.67000
Ni206      Ni  0.38147250  0.20505952  0.77737002     1.27400
Ni207      Ni  0.44134240  0.21058414  0.88027388     1.26100
H208        H  0.44130993  0.13753048  0.86941370     0.38100
O209        O  0.84898550  0.32516347  0.17821752    -0.81800
O210        O  0.78012368  0.10546135  0.23455773    -0.66500
O211        O  0.85429361  0.24199508  0.19972347    -1.13100
C212        C  0.81075219  0.17855472  0.03347215     1.05100
O213        O  0.81934140  0.08773423  0.17762627    -0.79700
O214        O  0.88874004  0.16151584  0.11464248    -0.67300
Ni215      Ni  0.83942865  0.28473875  0.23575092     1.34900
C216        C  0.91627917  0.20814570  0.10978294     0.83800
O217        O  0.83401189  0.18632661  0.28839166    -0.80300
O218        O  0.82899740  0.25199420  0.29975299    -0.90500
C219        C  0.79056562  0.07562792  0.21609297     0.83400
O220        O  0.76894471  0.24572277  0.22151022    -0.68700
O221        O  0.81173497  0.14221627  0.05117384    -0.88000
C222        C  0.73851162  0.19973571  0.22841685     0.84200
C223        C  0.82988108  0.21559188  0.31689576     1.05800
H224        H  0.76474260  0.14764898  0.14516734     0.37600
O225        O  0.80066797  0.16165461  0.14953168    -1.10700
O226        O  0.89897620  0.23583884  0.11420286    -0.67300
Ni227      Ni  0.83531907  0.22890550  0.12970610     1.26300
O228        O  0.75344439  0.16990528  0.23146873    -0.67600
O229        O  0.81557461  0.21342184  0.06073708    -0.79900
C230        C  0.86395119  0.32935055  0.13296312     0.83600
O231        O  0.86836806  0.29665360  0.11150055    -0.67000
Ni232      Ni  0.81607548  0.11833876  0.11606594     1.27400
Ni233      Ni  0.81685040  0.17382005  0.21899686     1.26100
H234        H  0.89009225  0.25499690  0.20340145     0.38100
O235        O  0.85113831  0.32022010  0.68387632    -0.81800
O236        O  0.77425514  0.09771328  0.73291407    -0.66500
O237        O  0.84933496  0.23397905  0.70001646    -1.13100
C238        C  0.81494946  0.17830649  0.53279597     1.05100
O239        O  0.81121095  0.07778204  0.67527065    -0.79700
O240        O  0.88776958  0.15910729  0.62315240    -0.67300
Ni241      Ni  0.83452764  0.27544020  0.73826894     1.34900
C242        C  0.91303532  0.20493441  0.61255969     0.83800
O243        O  0.82894420  0.17719554  0.78747616    -0.80300
O244        O  0.81810288  0.23878708  0.80008888    -0.90500
C245        C  0.78279343  0.06686660  0.71407069     0.83400
O246        O  0.76518280  0.23881657  0.71869604    -0.68700
O247        O  0.81955032  0.14393969  0.55019063    -0.88000
C248        C  0.73396639  0.19287542  0.72540290     0.84200
C249        C  0.82269990  0.20447791  0.81673420     1.05800
H250        H  0.75979062  0.13898379  0.64375866     0.37600
O251        O  0.79587377  0.15432580  0.64855782    -1.10700
O252        O  0.89311862  0.23055130  0.61234373    -0.67300
Ni253      Ni  0.82904676  0.22180969  0.63003268     1.26300
O254        O  0.74825359  0.16255677  0.73051032    -0.67600
O255        O  0.80898454  0.20679649  0.56118458    -0.79900
C256        C  0.86184739  0.32428167  0.63735197     0.83600
O257        O  0.85986371  0.28971763  0.61237924    -0.67000
Ni258      Ni  0.81575646  0.11446411  0.61491189     1.27400
Ni259      Ni  0.81159408  0.16577153  0.71811525     1.26100
H260        H  0.88513337  0.24674439  0.70312452     0.38100
O261        O  0.82971743  0.46399747  0.97942170    -0.81800
O262        O  0.75797698  0.60585511  0.93979166    -0.66500
O263        O  0.84287132  0.55611248  0.95838210    -1.13100
C264        C  0.82284592  0.57974747  0.13041899     1.05100
O265        O  0.80796769  0.66974009  0.98865135    -0.79700
O266        O  0.88752361  0.67457149  0.03914323    -0.67300
Ni267      Ni  0.83213707  0.50046675  0.92089369     1.34900
C268        C  0.91572333  0.65749039  0.04325473     0.83800
O269        O  0.80379999  0.57944794  0.87456495    -0.80300
O270        O  0.83259383  0.53016338  0.85807465    -0.90500
C271        C  0.77124748  0.64764136  0.95764853     0.83400
O272        O  0.76023445  0.46323455  0.92130237    -0.68700
O273        O  0.82172388  0.61654376  0.11401978    -0.88000
C274        C  0.72679991  0.47245609  0.93260091     0.84200
C275        C  0.81736279  0.55795169  0.84422900     1.05800
H276        H  0.76075482  0.55642457  0.02856027     0.37600
O277        O  0.79532751  0.57981774  0.01812195    -1.10700
O278        O  0.89799481  0.61149885  0.04020555    -0.67300
Ni279      Ni  0.83354816  0.55097513  0.03021437     1.26300
O280        O  0.73698706  0.51504421  0.94530926    -0.67600
O281        O  0.82270394  0.54787945  0.10151661    -0.79900
C282        C  0.85550855  0.47768153  0.01963646     0.83600
O283        O  0.86964057  0.51897228  0.03955360    -0.67000
Ni284      Ni  0.81543032  0.64099176  0.04972280     1.27400
Ni285      Ni  0.79930435  0.57968939  0.94661504     1.26100
H286        H  0.87711151  0.58290867  0.95092302     0.38100
O287        O  0.84441497  0.46757860  0.48675564    -0.81800
O288        O  0.76497633  0.60745791  0.42988593    -0.66500
O289        O  0.84474385  0.55410547  0.46480662    -1.13100
C290        C  0.80162750  0.57420597  0.63001614     1.05100
O291        O  0.80925260  0.66974624  0.48222829    -0.79700
O292        O  0.88069612  0.67047486  0.54515747    -0.67300
Ni293      Ni  0.83590160  0.49796680  0.42878428     1.34900
C294        C  0.90607624  0.65122826  0.55575857     0.83800
O295        O  0.81946938  0.58370813  0.37472606    -0.80300
O296        O  0.82786622  0.51983891  0.36433506    -0.90500
C297        C  0.77668007  0.64911135  0.44703977     0.83400
O298        O  0.76476618  0.45978902  0.43901090    -0.68700
O299        O  0.80559506  0.61285366  0.61170858    -0.88000
C300        C  0.73159015  0.47101642  0.43698765     0.84200
C301        C  0.82317301  0.55381174  0.34682243     1.05800
H302        H  0.75408420  0.55469652  0.52003315     0.37600
O303        O  0.79000708  0.57755064  0.51442434    -1.10700
O304        O  0.88727371  0.60525468  0.55201732    -0.67300
Ni305      Ni  0.82402437  0.54648883  0.53474083     1.26300
O306        O  0.74226600  0.51536144  0.43555513    -0.67600
O307        O  0.80229677  0.54154814  0.60327228    -0.79900
C308        C  0.85565991  0.47764938  0.53285667     0.83600
O309        O  0.85665919  0.51326781  0.55433341    -0.67000
Ni310      Ni  0.80795000  0.63872168  0.54553109     1.27400
Ni311      Ni  0.80430344  0.57995985  0.44472669     1.26100
H312        H  0.88006599  0.58027360  0.46174276     0.38100
C313        C  0.81306201  0.56350822  0.78982863    -0.07100
C314        C  0.77793609  0.52144176  0.76239554    -0.18200
C315        C  0.77045336  0.52426336  0.71086117     0.10100
C316        C  0.80054108  0.56968987  0.68547189    -0.07000
C317        C  0.83445007  0.61204261  0.71340035    -0.18200
C318        C  0.84097517  0.60945405  0.76514732     0.10200
S319        S  0.72005438  0.46955035  0.68048416    -0.33200
S320        S  0.88677758  0.66561650  0.79700959    -0.33200
H321        H  0.90123678  0.64340832  0.83294391     0.28200
H322        H  0.70919058  0.49460123  0.64442593     0.28200
H323        H  0.75509941  0.48635955  0.78163868     0.18800
H324        H  0.85771974  0.64718307  0.69437956     0.18800
C325        C  0.82225033  0.55900574  0.29142183    -0.07100
C326        C  0.84297268  0.60639048  0.27141922    -0.18200
C327        C  0.84507150  0.61433999  0.21954830     0.10100
C328        C  0.82430488  0.57384013  0.18587119    -0.07000
C329        C  0.80367858  0.52631687  0.20590950    -0.18200
C330        C  0.80197842  0.51837321  0.25795064     0.10200
S331        S  0.87863119  0.67756388  0.19922753    -0.33200
S332        S  0.77095862  0.45522044  0.27883379    -0.33200
H333        H  0.74459203  0.46080323  0.31856502     0.28200
H334        H  0.90762459  0.67031498  0.16384703     0.28200
H335        H  0.85945419  0.63795165  0.29639692     0.18800
H336        H  0.78736630  0.49477456  0.18093848     0.18800
C337        C  0.86634649  0.44491466  0.56222924    -0.07100
C338        C  0.88357360  0.41823647  0.53655286    -0.18200
C339        C  0.88746885  0.38164604  0.56072978     0.10100
C340        C  0.87260283  0.37023892  0.61181194    -0.07000
C341        C  0.86034404  0.40038084  0.63838800    -0.18200
C342        C  0.85624634  0.43655673  0.61438873     0.10200
S343        S  0.91151557  0.35126951  0.52413446    -0.33200
S344        S  0.83205502  0.46606380  0.65192667    -0.33200
H345        H  0.79129545  0.45206966  0.61898561     0.28200
H346        H  0.93994373  0.34922652  0.56397357     0.28200
H347        H  0.89327595  0.42528842  0.49693862     0.18800
H348        H  0.84974204  0.39339135  0.67780074     0.18800
C349        C  0.86532395  0.44272052  0.04594937    -0.07100
C350        C  0.87944445  0.45109637  0.09694425    -0.18200
C351        C  0.88383059  0.41693989  0.12529524     0.10100
C352        C  0.87228321  0.37208927  0.10299828    -0.07000
C353        C  0.86185113  0.36529163  0.05126317    -0.18200
C354        C  0.85870711  0.39998332  0.02234787     0.10200
S355        S  0.90485226  0.43330716  0.18950587    -0.33200
S356        S  0.84559419  0.38788352  0.95574824    -0.33200
H357        H  0.85304719  0.34857370  0.95227767     0.28200
H358        H  0.93236085  0.41019782  0.18981860     0.28200
H359        H  0.88628277  0.48416869  0.11541577     0.18800
H360        H  0.85366818  0.33139602  0.03376106     0.18800
C361        C  0.80765383  0.18143206  0.97791910    -0.07100
C362        C  0.82677808  0.15875904  0.94819980    -0.18200
C363        C  0.83324452  0.16616906  0.89624343     0.10100
C364        C  0.81837688  0.19561936  0.87203878    -0.07000
C365        C  0.79696661  0.21642443  0.90154371    -0.18200
C366        C  0.79113078  0.20946838  0.95370632     0.10200
S367        S  0.86369792  0.13931676  0.86438632    -0.33200
S368        S  0.76062956  0.23589170  0.98638539    -0.33200
H369        H  0.73349612  0.19597184  0.01980303     0.28200
H370        H  0.89960119  0.18357769  0.84002382     0.28200
H371        H  0.83942692  0.13687038  0.96581088     0.18800
H372        H  0.78389930  0.23796577  0.88385505     0.18800
C373        C  0.81842318  0.18655785  0.47728379    -0.07100
C374        C  0.79666043  0.21108833  0.45639641    -0.18200
C375        C  0.79896186  0.22038129  0.40461155     0.10100
C376        C  0.82513509  0.20630010  0.37214863    -0.07000
C377        C  0.84668655  0.18160711  0.39293208    -0.18200
C378        C  0.84417742  0.17204339  0.44459785     0.10200
S379        S  0.76509212  0.24780208  0.38262514    -0.33200
S380        S  0.87709840  0.14339921  0.46579051    -0.33200
H381        H  0.90315269  0.17809873  0.50411522     0.28200
H382        H  0.74264695  0.21528944  0.34180920     0.28200
H383        H  0.77648639  0.22219719  0.48047049     0.18800
H384        H  0.86693543  0.17060586  0.36881502     0.18800
C385        C  0.58639160  0.15836914  0.76890227    -0.07100
C386        C  0.61055020  0.18933078  0.72738737    -0.18200
C387        C  0.65691472  0.19800194  0.70907625     0.10100
C388        C  0.67961813  0.17523723  0.73295555    -0.07000
C389        C  0.65231295  0.14000531  0.77079102    -0.18200
C390        C  0.60605680  0.13137936  0.78890039     0.10200
S391        S  0.68751483  0.23967618  0.65661223    -0.33200
S392        S  0.57533090  0.08774534  0.83967820    -0.33200
H393        H  0.52623577  0.07725422  0.83007762     0.28200
H394        H  0.64577262  0.24251640  0.64265741     0.28200
H395        H  0.59516153  0.20974612  0.71190922     0.18800
H396        H  0.66871450  0.12158603  0.78891809     0.18800
C397        C  0.58927229  0.33368971  0.91502740    -0.07100
C398        C  0.59933440  0.37252173  0.88268156    -0.18200
C399        C  0.64143739  0.42053600  0.89065449     0.10100
C400        C  0.67405128  0.42985317  0.93173812    -0.07000
C401        C  0.66156511  0.39189750  0.96604700    -0.18200
C402        C  0.61939424  0.34437090  0.95863274     0.10200
S403        S  0.65474105  0.46698466  0.84437981    -0.33200
S404        S  0.60678678  0.29871124  0.00574316    -0.33200
H405        H  0.55379922  0.27507535  0.00279150     0.28200
H406        H  0.67573006  0.50646343  0.87854491     0.28200
H407        H  0.57604435  0.36493212  0.84959432     0.18800
H408        H  0.68647010  0.39877971  0.99761406     0.18800
C409        C  0.68422766  0.18202794  0.23682795    -0.07100
C410        C  0.66574202  0.20930801  0.21520954    -0.18200
C411        C  0.62152010  0.20529661  0.23313679     0.10100
C412        C  0.59421110  0.17252301  0.27304444    -0.07000
C413        C  0.61009282  0.14228779  0.29185803    -0.18200
C414        C  0.65404330  0.14586508  0.27356910     0.10200
S415        S  0.60476412  0.24629020  0.20664102    -0.33200
S416        S  0.67182247  0.10665153  0.30235674    -0.33200
H417        H  0.67654956  0.08840916  0.25588810     0.28200
H418        H  0.58960480  0.25685748  0.25224828     0.28200
H419        H  0.68794728  0.23673211  0.18660310     0.18800
H420        H  0.58906218  0.11691646  0.32238662     0.18800
C421        C  0.67836242  0.42921340  0.43438439    -0.07100
C422        C  0.64952051  0.42351471  0.39144618    -0.18200
C423        C  0.60554768  0.37771982  0.37988730     0.10100
C424        C  0.58942230  0.33729107  0.41273265    -0.07000
C425        C  0.61597244  0.34465418  0.45784928    -0.18200
C426        C  0.66024513  0.38991569  0.46886318     0.10200
S427        S  0.57489066  0.37208484  0.32067830    -0.33200
S428        S  0.69460398  0.39691764  0.52625344    -0.33200
H429        H  0.66248871  0.34839746  0.54406078     0.28200
H430        H  0.56661439  0.32575550  0.30849163     0.28200
H431        H  0.66369897  0.45350242  0.36457392     0.18800
H432        H  0.60285738  0.31408004  0.48375217     0.18800
C433        C  0.44599420  0.19519102  0.63974810    -0.07100
C434        C  0.44143637  0.22825793  0.60950964    -0.18200
C435        C  0.44542583  0.22779438  0.55709800     0.10100
C436        C  0.45204345  0.19191550  0.53377220    -0.07000
C437        C  0.45563460  0.15827014  0.56433327    -0.18200
C438        C  0.45228775  0.15926312  0.61672732     0.10200
S439        S  0.44560137  0.27641037  0.52313234    -0.33200
S440        S  0.45374434  0.11214784  0.65192602    -0.33200
H441        H  0.41406064  0.10284221  0.68462348     0.28200
H442        H  0.48901015  0.28917515  0.49453273     0.28200
H443        H  0.43661899  0.25592855  0.62701796     0.18800
H444        H  0.46047935  0.13045381  0.54728287     0.18800
C445        C  0.45148123  0.19935915  0.13927196    -0.07100
C446        C  0.47261158  0.17333099  0.12110286    -0.18200
C447        C  0.47392171  0.16509440  0.06961176     0.10100
C448        C  0.45495523  0.18467221  0.03460980    -0.07000
C449        C  0.43376832  0.21073889  0.05328805    -0.18200
C450        C  0.43234143  0.21870026  0.10474394     0.10200
S451        S  0.49868619  0.12781995  0.05215909    -0.33200
S452        S  0.40823586  0.25627719  0.12347003    -0.33200
H453        H  0.44249909  0.27954582  0.16347897     0.28200
H454        H  0.45940363  0.09894562  0.01782276     0.28200
H455        H  0.48650157  0.15753606  0.14744726     0.18800
H456        H  0.41995877  0.22705933  0.02758764     0.18800
C457        C  0.96659512  0.22999596  0.59489475    -0.07100
C458        C  0.98148482  0.26525211  0.55633789    -0.18200
C459        C  0.03060138  0.29075449  0.53653312     0.10100
C460        C  0.06719706  0.28235043  0.55610377    -0.07000
C461        C  0.05205762  0.24552931  0.59306737    -0.18200
C462        C  0.00236223  0.21947814  0.61278556     0.10200
S463        S  0.04401161  0.33299496  0.48547073    -0.33200
S464        S  0.98829410  0.17619033  0.66293778    -0.33200
H465        H  0.95800759  0.18830082  0.69056008     0.28200
H466        H  0.07662298  0.32220100  0.46042762     0.28200
H467        H  0.95419921  0.27257903  0.54064135     0.18800
H468        H  0.07993144  0.23918304  0.60902460     0.18800
C469        C  0.34169655  0.26473809  0.39064669    -0.07100
C470        C  0.33313833  0.26247232  0.44270163    -0.18200
C471        C  0.30839296  0.28371359  0.46438032     0.10100
C472        C  0.29072885  0.30719384  0.43335151    -0.07000
C473        C  0.29946466  0.30953072  0.38121153    -0.18200
C474        C  0.32489664  0.28890338  0.35966168     0.10200
S475        S  0.30302748  0.28177488  0.53207340    -0.33200
S476        S  0.33643897  0.29630891  0.29267848    -0.33200
H477        H  0.38442223  0.30230382  0.29459903     0.28200
H478        H  0.31329723  0.32987165  0.53687133     0.28200
H479        H  0.34620307  0.24432091  0.46674070     0.18800
H480        H  0.28669782  0.32789240  0.35706745     0.18800
C481        C  0.20911502  0.39154003  0.69013144    -0.07100
C482        C  0.23839341  0.38045493  0.72029885    -0.18200
C483        C  0.23614619  0.38140869  0.77281858     0.10100
C484        C  0.20319988  0.39337812  0.79630507    -0.07000
C485        C  0.17181518  0.40162295  0.76559521    -0.18200
C486        C  0.17412823  0.40048311  0.71306359     0.10200
S487        S  0.27720654  0.36783079  0.80657368    -0.33200
S488        S  0.12934524  0.40655048  0.67607446    -0.33200
H489        H  0.11303259  0.42467393  0.71488485     0.28200
H490        H  0.30473395  0.41443826  0.82965520     0.28200
H491        H  0.26425718  0.37210115  0.70273049     0.18800
H492        H  0.14512916  0.40900680  0.78274928     0.18800
C493        C  0.23107319  0.41483930  0.19010607    -0.07100
C494        C  0.21201333  0.44273728  0.20837437    -0.18200
C495        C  0.20589261  0.44695437  0.26006295     0.10100
C496        C  0.21929744  0.42241248  0.29512918    -0.07000
C497        C  0.23987780  0.39580996  0.27653127    -0.18200
C498        C  0.24622222  0.39198453  0.22492462     0.10200
S499        S  0.17955945  0.48281728  0.27896873    -0.33200
S500        S  0.27643218  0.36002347  0.20491591    -0.33200
H501        H  0.27336137  0.33756430  0.25135688     0.28200
H502        H  0.18495975  0.50602440  0.23237298     0.28200
H503        H  0.19989525  0.45985788  0.18178439     0.18800
H504        H  0.25216176  0.37850109  0.30263559     0.18800
C505        C  0.07634356  0.29046323  0.07393578    -0.07100
C506        C  0.04380537  0.24550990  0.04930496    -0.18200
C507        C  0.99156693  0.21677475  0.06091896     0.10100
C508        C  0.97133862  0.23285027  0.09855325    -0.07000
C509        C  0.00441258  0.27659309  0.12434964    -0.18200
C510        C  0.05617072  0.30464021  0.11336225     0.10200
S511        S  0.95245529  0.16214298  0.02397069    -0.33200
S512        S  0.09499290  0.35646314  0.15364734    -0.33200
H513        H  0.12944231  0.34189918  0.16188673     0.28200
H514        H  0.91257982  0.16991525  0.01899621     0.28200
H515        H  0.05861575  0.23383444  0.01933301     0.18800
H516        H  0.98980734  0.28886014  0.15400399     0.18800
C517        C  0.34582934  0.26353531  0.89703760    -0.07100
C518        C  0.29263640  0.23903364  0.89357427    -0.18200
C519        C  0.26654328  0.25971966  0.91340254     0.10100
C520        C  0.29380926  0.30545388  0.93847874    -0.07000
C521        C  0.34677147  0.33030869  0.94144996    -0.18200
C522        C  0.37308117  0.31039138  0.92064362     0.10200
S523        S  0.19889535  0.22696730  0.90379700    -0.33200
S524        S  0.44144157  0.34814192  0.92338975    -0.33200
H525        H  0.44850147  0.33927599  0.87307930     0.28200
H526        H  0.19622859  0.26911157  0.89990657     0.28200
H527        H  0.27111844  0.20360200  0.87491700     0.18800
H528        H  0.36797145  0.36604882  0.95961473     0.18800
C529        C  0.70899476  0.91756504  0.77096991    -0.07100
C530        C  0.69566378  0.94962503  0.79037650    -0.18200
C531        C  0.71977505  0.99858825  0.77421169     0.10100
C532        C  0.75943365  0.01708054  0.73777219    -0.07000
C533        C  0.77528510  0.98580876  0.72143758    -0.18200
C534        C  0.75094501  0.93674927  0.73774572     0.10200
S535        S  0.69462947  0.03333978  0.79922331    -0.33200
S536        S  0.77212886  0.89947583  0.71080691    -0.33200
H537        H  0.78176648  0.88641508  0.75805952     0.28200
H538        H  0.68044890  0.04095888  0.75151579     0.28200
H539        H  0.66391726  0.93552976  0.81630355     0.18800
H540        H  0.80599885  0.99908772  0.69441518     0.18800
C541        C  0.69475960  0.71601839  0.90148754    -0.07100
C542        C  0.66677628  0.66675829  0.91764600    -0.18200
C543        C  0.69077131  0.64426206  0.93744541     0.10100
C544        C  0.74429589  0.67124280  0.94084556    -0.07000
C545        C  0.77230865  0.72108598  0.92658095    -0.18200
C546        C  0.74816579  0.74381597  0.90724299     0.10200
S547        S  0.65074254  0.58116992  0.95836199    -0.33200
S548        S  0.78747018  0.80845688  0.89171713    -0.33200
H549        H  0.75177502  0.81977943  0.90712961     0.28200
H550        H  0.68117045  0.58606731  0.99969966     0.28200
H551        H  0.62581084  0.64520588  0.91394373     0.18800
H552        H  0.81330248  0.74226569  0.92984320     0.18800
C553        C  0.35344351  0.54100970  0.91076403    -0.07100
C554        C  0.38947976  0.56220916  0.94946170    -0.18200
C555        C  0.43449679  0.60859447  0.94324481     0.10100
C556        C  0.44371899  0.63442191  0.89729704    -0.07000
C557        C  0.40918786  0.61188185  0.85771522    -0.18200
C558        C  0.36473010  0.56535031  0.86363249     0.10200
S559        S  0.47546660  0.63510772  0.99719025    -0.33200
S560        S  0.32331860  0.53955857  0.80989099    -0.33200
H561        H  0.30369477  0.49015008  0.82288356     0.28200
H562        H  0.52119649  0.66091522  0.97006438     0.28200
H563        H  0.38110420  0.54401441  0.98577116     0.18800
H564        H  0.41618454  0.63138886  0.82233840     0.18800
C565        C  0.70840713  0.92612843  0.27296723    -0.07100
C566        C  0.75183505  0.94277679  0.24301472    -0.18200
C567        C  0.78166050  0.99189557  0.22665261     0.10100
C568        C  0.76741743  0.02565719  0.23945105    -0.07000
C569        C  0.72617765  0.00964846  0.27270668    -0.18200
C570        C  0.69683625  0.96068979  0.28969624     0.10200
S571        S  0.83691410  0.00837405  0.18941840    -0.33200
S572        S  0.64463418  0.94311739  0.33249243    -0.33200
H573        H  0.65685232  0.99108160  0.34356742     0.28200
H574        H  0.86844695  0.05337248  0.21455983     0.28200
H575        H  0.76171750  0.91687162  0.23064727     0.18800
H576        H  0.71530209  0.03504282  0.28391070     0.18800
C577        C  0.69663353  0.71411339  0.38860638    -0.07100
C578        C  0.74912310  0.74408616  0.39758483    -0.18200
C579        C  0.77655547  0.72426803  0.41608554     0.10100
C580        C  0.75116270  0.67309679  0.42603809    -0.07000
C581        C  0.69875614  0.64324887  0.41691789    -0.18200
C582        C  0.67141399  0.66293090  0.39833190     0.10200
S583        S  0.84395246  0.76594659  0.42443809    -0.33200
S584        S  0.60476385  0.62024961  0.38621141    -0.33200
H585        H  0.60419328  0.64282615  0.34107891     0.28200
H586        H  0.85671855  0.73228930  0.40835958     0.28200
H587        H  0.76899813  0.78331436  0.39002892     0.18800
H588        H  0.67873132  0.60399549  0.42445242     0.18800
C589        C  0.44794271  0.64073916  0.40999405    -0.07100
C590        C  0.42162045  0.63465520  0.45515099    -0.18200
C591        C  0.37941475  0.58910813  0.46910674     0.10100
C592        C  0.36198805  0.54826291  0.43701452    -0.07000
C593        C  0.39058267  0.55290623  0.39397487    -0.18200
C594        C  0.43346947  0.59882783  0.38004584     0.10200
S595        S  0.34752250  0.58587166  0.52714078    -0.33200
S596        S  0.46506416  0.60216538  0.32192015    -0.33200
H597        H  0.47511312  0.64862973  0.30742385     0.28200
H598        H  0.32543893  0.53503667  0.53506759     0.28200
H599        H  0.43341808  0.66612582  0.47942384     0.18800
H600        H  0.37702663  0.52170809  0.36888250     0.18800
C601        C  0.58295131  0.78105281  0.53256993    -0.07100
C602        C  0.53857065  0.75627048  0.56191226    -0.18200
C603        C  0.54031660  0.74869934  0.61344809     0.10100
C604        C  0.58779433  0.76844838  0.63731630    -0.07000
C605        C  0.63219371  0.79226071  0.60765683    -0.18200
C606        C  0.63029254  0.79861150  0.55571931     0.10200
S607        S  0.48047456  0.71079438  0.64558208    -0.33200
S608        S  0.68964216  0.83111691  0.52171654    -0.33200
H609        H  0.67481007  0.85452072  0.48767547     0.28200
H610        H  0.49762138  0.68778867  0.67741491     0.28200
H611        H  0.50188741  0.74085269  0.54409167     0.18800
H612        H  0.66894000  0.80764286  0.62527666     0.18800
C613        C  0.58766406  0.77878203  0.13763126    -0.07100
C614        C  0.56930103  0.80672365  0.11789615    -0.18200
C615        C  0.56444269  0.81026357  0.06580053     0.10100
C616        C  0.57736251  0.78431061  0.03237732    -0.07000
C617        C  0.59636515  0.75691471  0.05238236    -0.18200
C618        C  0.60126768  0.75355819  0.10423618     0.10200
S619        S  0.54413962  0.84996378  0.04310862    -0.33200
S620        S  0.62276185  0.71447831  0.12514577    -0.33200
H621        H  0.59021676  0.69565977  0.16720417     0.28200
H622        H  0.54299218  0.86975245  0.08996409     0.28200
H623        H  0.55974249  0.82672657  0.14353246     0.18800
H624        H  0.60595533  0.73639084  0.02748833     0.18800
C625        C  0.06226028  0.74229426  0.60724899    -0.07100
C626        C  0.03207802  0.69211950  0.61997876    -0.18200
C627        C  0.98134267  0.66261192  0.60552251     0.10100
C628        C  0.95919345  0.68251675  0.57510706    -0.07000
C629        C  0.98833218  0.73333647  0.56453559    -0.18200
C630        C  0.03890715  0.76345974  0.58097428     0.10200
S631        S  0.94736944  0.60025226  0.62929639    -0.33200
S632        S  0.07138674  0.82801831  0.56566863    -0.33200
H633        H  0.08555048  0.84305597  0.61588295     0.28200
H634        H  0.90539334  0.60178673  0.64536967     0.28200
H635        H  0.04823285  0.67524061  0.64154456     0.18800
H636        H  0.97180060  0.74979355  0.54290988     0.18800
C637        C  0.27482122  0.95776308  0.72865399    -0.07100
C638        C  0.30404125  0.96906544  0.77281888    -0.18200
C639        C  0.32952362  0.01631202  0.79382496     0.10100
C640        C  0.32621654  0.05383370  0.77062200    -0.07000
C641        C  0.29388481  0.04193299  0.72919837    -0.18200
C642        C  0.26884628  0.99484836  0.70754741     0.10200
S643        S  0.36594716  0.02670510  0.85015112    -0.33200
S644        S  0.23378372  0.98649867  0.65074309    -0.33200
H645        H  0.26175194  0.97211774  0.62226592     0.28200
H646        H  0.35736448  0.06220375  0.86987669     0.28200
H647        H  0.30811972  0.94117622  0.79083417     0.18800
H648        H  0.29142863  0.07068836  0.71088395     0.18800
C649        C  0.45470492  0.81735389  0.76196522    -0.07100
C650        C  0.43188585  0.78745337  0.71964357    -0.18200
C651        C  0.38823193  0.78223603  0.69832776     0.10100
C652        C  0.36726478  0.80762142  0.71990182    -0.07000
C653        C  0.39461591  0.84294873  0.75738393    -0.18200
C654        C  0.43773634  0.84759957  0.77907001     0.10200
S655        S  0.35806298  0.74136196  0.64535283    -0.33200
S656        S  0.46706266  0.88990773  0.83091030    -0.33200
H657        H  0.51486711  0.89580832  0.82637601     0.28200
H658        H  0.39118419  0.72454111  0.64217812     0.28200
H659        H  0.44587860  0.76524872  0.70594689     0.18800
H660        H  0.37949720  0.86339502  0.77358583     0.18800
C661        C  0.16434504  0.52843200  0.56065517    -0.07100
C662        C  0.16413212  0.52854170  0.61335713    -0.18200
C663        C  0.16158761  0.56442506  0.64039081     0.10100
C664        C  0.16183023  0.60305214  0.61422563    -0.07000
C665        C  0.15671580  0.59990840  0.56162660    -0.18200
C666        C  0.15732003  0.56274138  0.53462981     0.10200
S667        S  0.15894189  0.55881339  0.70810380    -0.33200
S668        S  0.14959847  0.55997303  0.46697829    -0.33200
H669        H  0.14546353  0.60119467  0.46189697     0.28200
H670        H  0.12707592  0.57688831  0.71443175     0.28200
H671        H  0.16834209  0.50189355  0.63375844     0.18800
H672        H  0.15507365  0.62817369  0.54131275     0.18800
C673        C  0.97135285  0.69064883  0.05434815    -0.07100
C674        C  0.00166178  0.67112340  0.04651198    -0.18200
C675        C  0.05253916  0.69608512  0.06094132     0.10100
C676        C  0.07501814  0.74207789  0.08645081    -0.07000
C677        C  0.04554213  0.76284716  0.09247412    -0.18200
C678        C  0.99463306  0.73825166  0.07653046     0.10200
S679        S  0.08597496  0.66682548  0.04316430    -0.33200
S680        S  0.96310462  0.77101063  0.08489384    -0.33200
H681        H  0.91967951  0.73214198  0.10814007     0.28200
H682        H  0.12536077  0.70900462  0.01856541     0.28200
H683        H  0.98566186  0.63563180  0.02828731     0.18800
H684        H  0.06214417  0.79866086  0.11009049     0.18800
C685        C  0.27298212  0.95591290  0.23795499    -0.07100
C686        C  0.31817574  0.97268576  0.26474025    -0.18200
C687        C  0.34750015  0.02082782  0.28287844     0.10100
C688        C  0.33265658  0.05453923  0.27334586    -0.07000
C689        C  0.28591887  0.03712937  0.24921537    -0.18200
C690        C  0.25571406  0.98825513  0.23212902     0.10200
S691        S  0.40312503  0.03648250  0.31851270    -0.33200
S692        S  0.19567493  0.96967257  0.20383285    -0.33200
H693        H  0.16968101  0.92209308  0.22508718     0.28200
H694        H  0.39141265  0.05874669  0.35702660     0.28200
H695        H  0.33182394  0.94843872  0.27071755     0.18800
H696        H  0.27341705  0.06213326  0.24217469     0.18800
C697        C  0.36341317  0.81031304  0.23331074    -0.07100
C698        C  0.38339227  0.83561458  0.27881505    -0.18200
C699        C  0.42770865  0.84170692  0.29923851     0.10100
C700        C  0.45268373  0.82188388  0.27393978    -0.07000
C701        C  0.43630414  0.80218437  0.22553145    -0.18200
C702        C  0.39216122  0.79648660  0.20488606     0.10200
S703        S  0.44930977  0.87315112  0.35879582    -0.33200
S704        S  0.37314193  0.76943407  0.14309853    -0.33200
H705        H  0.34490380  0.79049669  0.13138986     0.28200
H706        H  0.50073319  0.88992450  0.35120577     0.28200
H707        H  0.36236240  0.84739853  0.30055399     0.18800
H708        H  0.45592276  0.78805740  0.20510960     0.18800
C709        C  0.18583730  0.61857278  0.09536385    -0.07100
C710        C  0.15541651  0.57079182  0.11519906    -0.18200
C711        C  0.15138218  0.53024647  0.09086365     0.10100
C712        C  0.17997688  0.53779175  0.04648943    -0.07000
C713        C  0.20785184  0.58538376  0.02537036    -0.18200
C714        C  0.21169090  0.62562947  0.04947475     0.10200
S715        S  0.10838563  0.47038158  0.11795201    -0.33200
S716        S  0.25451993  0.68546195  0.02207715    -0.33200
H717        H  0.27743882  0.70847390  0.06793393     0.28200
H718        H  0.09026924  0.44659865  0.07126877     0.28200
H719        H  0.13468790  0.56504824  0.14999024     0.18800
H720        H  0.22979939  0.59227379  0.99123878     0.18800
C721        C  0.23546867  0.80421185  0.97316972    -0.07100
C722        C  0.26569121  0.78857242  0.95186142    -0.18200
C723        C  0.26642539  0.78171789  0.89981106     0.10100
C724        C  0.23576248  0.79016628  0.86766414    -0.07000
C725        C  0.20720510  0.80767843  0.88865495    -0.18200
C726        C  0.20597495  0.81399480  0.94057367     0.10200
S727        S  0.30887963  0.76415480  0.87698896    -0.33200
S728        S  0.16290981  0.83118501  0.96228852    -0.33200
H729        H  0.13986091  0.79319640  0.99822965     0.28200
H730        H  0.32218750  0.79270806  0.83298571     0.28200
H731        H  0.28963281  0.78233003  0.97588349     0.18800
H732        H  0.18346510  0.81422868  0.86458307     0.18800
C733        C  0.21315081  0.77108740  0.36690702    -0.07100
C734        C  0.19099009  0.79554010  0.38733343    -0.18200
C735        C  0.18916090  0.80152606  0.43936004     0.10100
C736        C  0.21115369  0.78382895  0.47277377    -0.07000
C737        C  0.23273862  0.75889631  0.45260830    -0.18200
C738        C  0.23468545  0.75292264  0.40059053     0.10200
S739        S  0.15535653  0.82939807  0.46038413    -0.33200
S740        S  0.26758064  0.72386134  0.38049700    -0.33200
H741        H  0.29849713  0.76136434  0.34579016     0.28200
H742        H  0.13023245  0.79539058  0.49978836     0.28200
H743        H  0.17363716  0.80916558  0.36265620     0.18800
H744        H  0.24986065  0.74523301  0.47757158     0.18800
loop_ 
_geom_bond_atom_site_label_1 
_geom_bond_atom_site_label_2 
_geom_bond_distance 
_geom_bond_site_symmetry_2 
_ccdc_geom_bond_type 
O1           Ni7   1.914       .  S
O1           C22   1.267       .  A
O2          Ni25   1.885       .  S
O2           C11   1.265       .  A
O3           Ni7   1.924       .  S
O3          Ni25   1.912       .  S
O3          Ni19   1.934       .  S
O3           H26   0.966       .  S
C4           O21   1.274       .  A
C4           O13   1.275       .  A
C4          C721   1.489   1_554  S
O5          Ni24   1.947       .  S
O5           C11   1.277       .  A
O6          Ni24   1.927       .  S
O6            C8   1.276       .  A
Ni7          O10   1.929       .  S
Ni7          O12   1.903       .  S
C8           O18   1.270       .  A
C8          C676   1.503       .  S
O9          Ni25   1.907       .  S
O9           C15   1.267       .  A
O10          C15   1.268       .  A
C11         C685   1.489       .  S
O12          C14   1.270       .  A
O13         Ni24   1.934       .  S
C14          O20   1.280       .  A
C14         C697   1.483       .  S
C15         C733   1.494       .  S
H16          O17   0.966       .  S
O17         Ni25   1.901       .  S
O17         Ni19   1.893       .  S
O17         Ni24   1.924       .  S
O18         Ni19   1.925       .  S
Ni19         O23   1.895       .  S
Ni19         O21   1.913       .  S
O20         Ni25   1.956       .  S
C22          O23   1.264       .  A
C22         C709   1.469       .  S
O27         Ni33   1.914       .  S
O27          C48   1.267       .  A
O28         Ni51   1.891       .  S
O28          C37   1.264       .  A
O29         Ni33   1.922       .  S
O29         Ni51   1.913       .  S
O29         Ni45   1.929       .  S
O29          H52   0.966       .  S
C30          O47   1.278       .  A
C30          O39   1.278       .  A
C30         C736   1.488       .  S
O31         Ni50   1.947       .  S
O31          C37   1.274       .  A
O32         Ni50   1.917       .  S
O32          C34   1.269       .  A
Ni33         O36   1.934       .  S
Ni33         O38   1.894       .  S
C34          O44   1.273       .  A
C34         C625   1.498       .  S
O35         Ni51   1.901       .  S
O35          C41   1.267       .  A
O36          C41   1.271       .  A
C37         C637   1.493       .  S
O38          C40   1.266       .  A
O39         Ni50   1.930       .  S
C40          O46   1.276       .  A
C40         C652   1.480       .  S
C41         C724   1.484       .  S
H42          O43   0.966       .  S
O43         Ni51   1.897       .  S
O43         Ni45   1.901       .  S
O43         Ni50   1.919       .  S
O44         Ni45   1.923       .  S
Ni45         O49   1.913       .  S
Ni45         O47   1.919       .  S
O46         Ni51   1.947       .  S
C48          O49   1.270       .  A
C48         C664   1.488       .  S
O53         Ni59   1.930       .  S
O53          C74   1.271       .  A
O54         Ni77   1.905       .  S
O54          C63   1.268       .  A
O55         Ni59   1.914       .  S
O55         Ni77   1.919       .  S
O55         Ni71   1.921       .  S
O55          H78   0.965       .  S
C56          O73   1.274       .  A
C56          O65   1.278       .  A
C56         C613   1.478       .  S
O57         Ni76   1.946       .  S
O57          C63   1.275       .  A
O58         Ni76   1.916       .  S
O58          C60   1.271       .  A
Ni59         O62   1.918       .  S
Ni59         O64   1.901       .  S
C60          O70   1.271       .  A
C60         C565   1.487       .  S
O61         Ni77   1.910       .  S
O61          C67   1.271       .  A
O62          C67   1.273       .  A
C63         C577   1.486       .  S
O64          C66   1.271       .  A
O65         Ni76   1.936       .  S
C66          O72   1.276       .  A
C66         C589   1.480       .  S
C67         C601   1.475       .  S
H68          O69   0.966       .  S
O69         Ni77   1.899       .  S
O69         Ni71   1.904       .  S
O69         Ni76   1.916       .  S
O70         Ni71   1.928       .  S
Ni71         O75   1.915       .  S
Ni71         O73   1.904       .  S
O72         Ni77   1.940       .  S
C74          O75   1.267       .  A
C74         C700   1.483       .  S
O79         Ni85   1.932       .  S
O79         C100   1.272       .  A
O80        Ni103   1.899       .  S
O80          C89   1.266       .  A
O81         Ni85   1.920       .  S
O81        Ni103   1.912       .  S
O81         Ni97   1.917       .  S
O81         H104   0.966       .  S
C82          O99   1.272       .  A
C82          O91   1.276       .  A
C82         C604   1.482       .  S
O83        Ni102   1.935       .  S
O83          C89   1.272       .  A
O84        Ni102   1.909       .  S
O84          C86   1.268       .  A
Ni85         O88   1.925       .  S
Ni85         O90   1.907       .  S
C86          O96   1.272       .  A
C86         C529   1.484       .  S
O87        Ni103   1.906       .  S
O87          C93   1.271       .  A
O88          C93   1.273       .  A
C89         C541   1.478       .  S
O90          C92   1.270       .  A
O91        Ni102   1.930       .  S
C92          O98   1.273       .  A
C92         C556   1.475       .  S
C93         C616   1.486   1_556  S
H94          O95   0.966       .  S
O95        Ni103   1.904       .  S
O95         Ni97   1.903       .  S
O95        Ni102   1.921       .  S
O96         Ni97   1.924       .  S
Ni97        O101   1.902       .  S
Ni97         O99   1.905       .  S
O98        Ni103   1.935       .  S
C100        O101   1.264       .  A
C100        C649   1.472       .  S
O105       Ni111   1.915       .  S
O105        C126   1.270   1_556  A
O106       Ni129   1.890       .  S
O106        C115   1.266       .  A
O107       Ni111   1.902       .  S
O107       Ni129   1.901       .  S
O107       Ni123   1.916   1_556  S
O107        H130   0.966       .  S
C108        O125   1.279       .  A
C108        O117   1.282       .  A
C108        C493   1.485       .  S
O109       Ni128   1.955   1_556  S
O109        C115   1.280       .  A
O110       Ni128   1.929       .  S
O110        C112   1.273       .  A
Ni111       O114   1.910       .  S
Ni111       O116   1.910       .  S
C112        O122   1.271       .  A
C112        C505   1.491       .  S
O113       Ni129   1.913       .  S
O113        C119   1.270       .  A
O114        C119   1.274       .  A
C115        C520   1.474       .  S
O116        C118   1.270       .  A
O117       Ni128   1.940       .  S
C118        O124   1.275       .  A
C118        C553   1.481       .  S
C119        C484   1.487       .  S
H120        O121   0.967       .  S
O121       Ni129   1.890   1_554  S
O121       Ni123   1.891       .  S
O121       Ni128   1.900       .  S
O122       Ni123   1.928       .  S
Ni123       O127   1.908       .  S
Ni123       O125   1.907       .  S
O124       Ni129   1.937       .  S
C126        O127   1.268       .  A
C126        C712   1.484       .  S
O131       Ni137   1.917       .  S
O131        C152   1.267       .  A
O132       Ni155   1.906       .  S
O132        C141   1.269       .  A
O133       Ni137   1.911       .  S
O133       Ni155   1.911       .  S
O133       Ni149   1.917       .  S
O133        H156   0.967       .  S
C134        O151   1.275       .  A
C134        O143   1.276       .  A
C134        C481   1.473       .  S
O135       Ni154   1.938       .  S
O135        C141   1.274       .  A
O136       Ni154   1.919       .  S
O136        C138   1.272       .  A
Ni137       O140   1.914       .  S
Ni137       O142   1.894       .  S
C138        O148   1.272       .  A
C138        C460   1.485       .  S
O139       Ni155   1.912       .  S
O139        C145   1.275       .  A
O140        C145   1.270       .  A
C141        C472   1.483       .  S
O142        C144   1.267       .  A
O143       Ni154   1.924       .  S
C144        O150   1.274       .  A
C144        C592   1.472       .  S
C145        C496   1.494       .  S
H146        O147   0.966       .  S
O147       Ni155   1.910       .  S
O147       Ni149   1.906       .  S
O147       Ni154   1.918       .  S
O148       Ni149   1.925       .  S
Ni149       O153   1.918       .  S
Ni149       O151   1.909       .  S
O150       Ni155   1.939       .  S
C152        O153   1.270       .  A
C152        C661   1.483       .  S
O157       Ni163   1.926       .  S
O157        C178   1.270       .  A
O158       Ni181   1.902       .  S
O158        C167   1.269       .  A
O159       Ni163   1.908       .  S
O159       Ni181   1.908       .  S
O159       Ni175   1.916       .  S
O159        H182   0.964       .  S
C160        O177   1.272       .  A
C160        O169   1.277       .  A
C160        C445   1.473       .  S
O161       Ni180   1.939       .  S
O161        C167   1.275       .  A
O162       Ni180   1.915       .  S
O162        C164   1.272       .  A
Ni163       O166   1.915       .  S
Ni163       O168   1.901       .  S
C164        O174   1.274       .  A
C164        C688   1.489       .  S
O165       Ni181   1.912       .  S
O165        C171   1.272       .  A
O166        C171   1.274       .  A
C167        C469   1.478       .  S
O168        C170   1.270       .  A
O169       Ni180   1.932       .  S
C170        O176   1.276       .  A
C170        C424   1.480       .  S
C171        C436   1.482       .  S
H172        O173   0.966       .  S
O173       Ni181   1.902       .  S
O173       Ni175   1.900       .  S
O173       Ni180   1.910       .  S
O174       Ni175   1.935       .  S
Ni175       O179   1.910       .  S
Ni175       O177   1.900       .  S
O176       Ni181   1.937       .  S
C178        O179   1.267       .  A
C178        C412   1.472       .  S
O183       Ni189   1.927       .  S
O183        C204   1.272       .  A
O184       Ni207   1.901       .  S
O184        C193   1.267       .  A
O185       Ni189   1.908       .  S
O185       Ni207   1.903       .  S
O185       Ni201   1.911       .  S
O185        H208   0.965       .  S
C186        O203   1.273       .  A
C186        O195   1.275       .  A
C186        C433   1.472       .  S
O187       Ni206   1.938       .  S
O187        C193   1.274       .  A
O188       Ni206   1.912       .  S
O188        C190   1.271       .  A
Ni189       O192   1.916       .  S
Ni189       O194   1.906       .  S
C190        O200   1.274       .  A
C190        C640   1.477       .  S
O191       Ni207   1.911       .  S
O191        C197   1.275       .  A
O192        C197   1.273       .  A
C193        C517   1.488       .  S
O194        C196   1.270       .  A
O195       Ni206   1.926       .  S
C196        O202   1.273       .  A
C196        C397   1.481       .  S
C197        C448   1.488   1_556  S
H198        O199   0.966       .  S
O199       Ni207   1.907       .  S
O199       Ni201   1.907       .  S
O199       Ni206   1.917       .  S
O200       Ni201   1.929       .  S
Ni201       O205   1.914       .  S
Ni201       O203   1.907       .  S
O202       Ni207   1.933       .  S
C204        O205   1.269       .  A
C204        C385   1.475       .  S
O209       Ni215   1.922       .  S
O209        C230   1.269       .  A
O210       Ni233   1.899       .  S
O210        C219   1.267       .  A
O211       Ni215   1.926       .  S
O211       Ni233   1.917       .  S
O211       Ni227   1.930       .  S
O211        H234   0.966       .  S
C212        O229   1.274       .  A
C212        O221   1.276       .  A
C212        C361   1.485   1_554  S
O213       Ni232   1.940       .  S
O213        C219   1.274       .  A
O214       Ni232   1.922       .  S
O214        C216   1.272       .  A
Ni215       O218   1.932       .  S
Ni215       O220   1.898       .  S
C216        O226   1.272       .  A
C216        C508   1.486       .  S
O217       Ni233   1.903       .  S
O217        C223   1.267       .  A
O218        C223   1.271       .  A
C219        C568   1.496       .  S
O220        C222   1.270       .  A
O221       Ni232   1.922       .  S
C222        O228   1.276       .  A
C222        C409   1.487       .  S
C223        C376   1.488       .  S
H224        O225   0.966       .  S
O225       Ni233   1.899       .  S
O225       Ni227   1.899       .  S
O225       Ni232   1.919       .  S
O226       Ni227   1.923       .  S
Ni227       O231   1.904       .  S
Ni227       O229   1.913       .  S
O228       Ni233   1.945       .  S
C230        O231   1.268       .  A
C230        C352   1.485       .  S
O235       Ni241   1.903       .  S
O235        C256   1.267       .  A
O236       Ni259   1.886       .  S
O236        C245   1.261       .  A
O237       Ni241   1.920       .  S
O237       Ni259   1.910       .  S
O237       Ni253   1.936       .  S
O237        H260   0.966       .  S
C238        O255   1.275       .  A
C238        O247   1.276       .  A
C238        C373   1.491       .  S
O239       Ni258   1.950       .  S
O239        C245   1.278       .  A
O240       Ni258   1.924       .  S
O240        C242   1.274       .  A
Ni241       O244   1.922       .  S
Ni241       O246   1.901       .  S
C242        O252   1.273       .  A
C242        C457   1.488       .  S
O243       Ni259   1.901       .  S
O243        C249   1.263       .  A
O244        C249   1.267       .  A
C245        C532   1.495       .  S
O246        C248   1.271       .  A
O247       Ni258   1.935       .  S
C248        O254   1.280       .  A
C248        C388   1.486       .  S
C249        C364   1.488       .  S
H250        O251   0.966       .  S
O251       Ni259   1.897       .  S
O251       Ni253   1.899       .  S
O251       Ni258   1.919       .  S
O252       Ni253   1.923       .  S
Ni253       O257   1.911       .  S
Ni253       O255   1.911       .  S
O254       Ni259   1.953       .  S
C256        O257   1.267       .  A
C256        C340   1.491       .  S
O261       Ni267   1.924       .  S
O261        C282   1.268   1_556  A
O262       Ni285   1.893       .  S
O262        C271   1.267       .  A
O263       Ni267   1.914       .  S
O263       Ni285   1.909       .  S
O263       Ni279   1.923   1_556  S
O263        H286   0.966       .  S
C264        O281   1.279       .  A
C264        O273   1.280       .  A
C264        C328   1.489       .  S
O265       Ni284   1.943   1_556  S
O265        C271   1.276       .  A
O266       Ni284   1.924       .  S
O266        C268   1.270       .  A
Ni267       O270   1.919       .  S
Ni267       O272   1.894       .  S
C268        O278   1.273       .  A
C268        C673   1.502       .  S
O269       Ni285   1.918       .  S
O269        C275   1.273       .  A
O270        C275   1.273       .  A
C271        C544   1.475       .  S
O272        C274   1.266       .  A
O273       Ni284   1.935       .  S
C274        O280   1.274       .  A
C274        C400   1.472       .  S
C275        C313   1.471       .  S
H276        O277   0.966       .  S
O277       Ni285   1.903   1_554  S
O277       Ni279   1.894       .  S
O277       Ni284   1.909       .  S
O278       Ni279   1.924       .  S
Ni279       O283   1.910       .  S
Ni279       O281   1.916       .  S
O280       Ni285   1.939       .  S
C282        O283   1.269       .  A
C282        C349   1.490       .  S
O287       Ni293   1.918       .  S
O287        C308   1.268       .  A
O288       Ni311   1.904       .  S
O288        C297   1.269       .  A
O289       Ni293   1.928       .  S
O289       Ni311   1.926       .  S
O289       Ni305   1.937       .  S
O289        H312   0.966       .  S
C290        O307   1.278       .  A
C290        O299   1.277       .  A
C290        C316   1.478       .  S
O291       Ni310   1.944       .  S
O291        C297   1.276       .  A
O292       Ni310   1.927       .  S
O292        C294   1.274       .  A
Ni293       O296   1.919       .  S
Ni293       O298   1.893       .  S
C294        O304   1.268       .  A
C294        C628   1.497       .  S
O295       Ni311   1.905       .  S
O295        C301   1.268       .  A
O296        C301   1.267       .  A
C297        C580   1.486       .  S
O298        C300   1.270       .  A
O299       Ni310   1.929       .  S
C300        O306   1.279       .  A
C300        C421   1.474       .  S
C301        C325   1.483       .  S
H302        O303   0.966       .  S
O303       Ni311   1.895       .  S
O303       Ni305   1.889       .  S
O303       Ni310   1.920       .  S
O304       Ni305   1.917       .  S
Ni305       O309   1.906       .  S
Ni305       O307   1.917       .  S
O306       Ni311   1.950       .  S
C308        O309   1.265       .  A
C308        C337   1.487       .  S
C313        C314   1.405       .  A
C313        C318   1.409       .  A
C314        C315   1.400       .  A
C314        H323   1.084       .  S
C315        C316   1.411       .  A
C315        S319   1.804       .  S
C316        C317   1.407       .  A
C317        C318   1.399       .  A
C317        H324   1.084       .  S
C318        S320   1.804       .  S
S319        H322   1.407       .  S
S320        H321   1.406       .  S
C325        C326   1.400       .  A
C325        C330   1.419       .  A
C326        C327   1.396       .  A
C326        H335   1.084       .  S
C327        C328   1.418       .  A
C327        S331   1.797       .  S
C328        C329   1.405       .  A
C329        C330   1.401       .  A
C329        H336   1.084       .  S
C330        S332   1.804       .  S
S331        H334   1.408       .  S
S332        H333   1.407       .  S
C337        C338   1.410       .  A
C337        C342   1.413       .  A
C338        C339   1.403       .  A
C338        H347   1.084       .  S
C339        C340   1.416       .  A
C339        S343   1.803       .  S
C340        C341   1.409       .  A
C341        C342   1.392       .  A
C341        H348   1.083       .  S
C342        S344   1.799       .  S
S343        H346   1.408       .  S
S344        H345   1.407       .  S
C349        C350   1.406       .  A
C349        C354   1.422       .  A
C350        C351   1.399       .  A
C350        H359   1.084       .  S
C351        C352   1.416       .  A
C351        S355   1.803       .  S
C352        C353   1.403       .  A
C353        C354   1.402       .  A
C353        H360   1.082       .  S
C354        S356   1.811   1_554  S
S355        H358   1.408       .  S
S356        H357   1.407       .  S
C361        C362   1.407       .  A
C361        C366   1.414       .  A
C362        C363   1.396       .  A
C362        H371   1.083       .  S
C363        C364   1.415       .  A
C363        S367   1.803       .  S
C364        C365   1.410       .  A
C365        C366   1.399       .  A
C365        H372   1.084       .  S
C366        S368   1.804       .  S
S367        H370   1.408       .  S
S368        H369   1.407   1_556  S
C373        C374   1.405       .  A
C373        C378   1.421       .  A
C374        C375   1.401       .  A
C374        H383   1.084       .  S
C375        C376   1.419       .  A
C375        S379   1.803       .  S
C376        C377   1.403       .  A
C377        C378   1.399       .  A
C377        H384   1.084       .  S
C378        S380   1.803       .  S
S379        H382   1.406       .  S
S380        H381   1.404       .  S
C385        C386   1.401       .  A
C385        C390   1.411       .  A
C386        C387   1.406       .  A
C386        H395   1.083       .  S
C387        C388   1.416       .  A
C387        S391   1.807       .  S
C388        C389   1.406       .  A
C389        C390   1.401       .  A
C389        H396   1.084       .  S
C390        S392   1.804       .  S
S391        H394   1.407       .  S
S392        H393   1.407       .  S
C397        C398   1.405       .  A
C397        C402   1.416       .  A
C398        C399   1.406       .  A
C398        H407   1.084       .  S
C399        C400   1.413       .  A
C399        S403   1.801       .  S
C400        C401   1.400       .  A
C401        C402   1.395       .  A
C401        H408   1.085       .  S
C402        S404   1.804   1_556  S
S403        H406   1.405       .  S
S404        H405   1.405       .  S
C409        C410   1.408       .  A
C409        C414   1.417       .  A
C410        C411   1.399       .  A
C410        H419   1.084       .  S
C411        C412   1.411       .  A
C411        S415   1.804       .  S
C412        C413   1.402       .  A
C413        C414   1.401       .  A
C413        H420   1.084       .  S
C414        S416   1.801       .  S
S415        H418   1.406       .  S
S416        H417   1.408       .  S
C421        C422   1.405       .  A
C421        C426   1.409       .  A
C422        C423   1.406       .  A
C422        H431   1.084       .  S
C423        C424   1.414       .  A
C423        S427   1.802       .  S
C424        C425   1.405       .  A
C425        C426   1.398       .  A
C425        H432   1.083       .  S
C426        S428   1.810       .  S
S427        H430   1.407       .  S
S428        H429   1.407       .  S
C433        C434   1.401       .  A
C433        C438   1.412       .  A
C434        C435   1.398       .  A
C434        H443   1.084       .  S
C435        C436   1.420       .  A
C435        S439   1.803       .  S
C436        C437   1.405       .  A
C437        C438   1.397       .  A
C437        H444   1.084       .  S
C438        S440   1.803       .  S
S439        H442   1.407       .  S
S440        H441   1.406       .  S
C445        C446   1.401       .  A
C445        C450   1.411       .  A
C446        C447   1.398       .  A
C446        H455   1.084       .  S
C447        C448   1.421       .  A
C447        S451   1.803       .  S
C448        C449   1.409       .  A
C449        C450   1.395       .  A
C449        H456   1.084       .  S
C450        S452   1.804       .  S
S451        H454   1.408       .  S
S452        H453   1.407       .  S
C457        C458   1.407       .  A
C457        C462   1.415   1_655  A
C458        C459   1.395   1_655  A
C458        H467   1.084       .  S
C459        C460   1.410       .  A
C459        S463   1.802       .  S
C460        C461   1.409       .  A
C461        C462   1.408       .  A
C461        H468   1.084       .  S
C462        S464   1.801   1_455  S
S463        H466   1.407       .  S
S464        H465   1.407       .  S
C469        C470   1.402       .  A
C469        C474   1.414       .  A
C470        C471   1.401       .  A
C470        H479   1.084       .  S
C471        C472   1.417       .  A
C471        S475   1.803       .  S
C472        C473   1.405       .  A
C473        C474   1.402       .  A
C473        H480   1.084       .  S
C474        S476   1.804       .  S
S475        H478   1.407       .  S
S476        H477   1.407       .  S
C481        C482   1.401       .  A
C481        C486   1.409       .  A
C482        C483   1.397       .  A
C482        H491   1.084       .  S
C483        C484   1.422       .  A
C483        S487   1.804       .  S
C484        C485   1.408       .  A
C485        C486   1.398       .  A
C485        H492   1.082       .  S
C486        S488   1.807       .  S
S487        H490   1.407       .  S
S488        H489   1.407       .  S
C493        C494   1.404       .  A
C493        C498   1.414       .  A
C494        C495   1.402       .  A
C494        H503   1.083       .  S
C495        C496   1.423       .  A
C495        S499   1.811       .  S
C496        C497   1.408       .  A
C497        C498   1.399       .  A
C497        H504   1.082       .  S
C498        S500   1.810       .  S
S499        H502   1.407       .  S
S500        H501   1.406       .  S
C505        C506   1.405       .  A
C505        C510   1.417       .  A
C506        C507   1.410   1_455  A
C506        H515   1.084       .  S
C507        C508   1.419       .  A
C507        S511   1.800       .  S
C508        C509   1.399   1_655  A
C509        C510   1.394       .  A
C509        H516   1.085   1_455  S
C510        S512   1.796       .  S
S511        H514   1.404       .  S
S512        H513   1.404       .  S
C517        C518   1.409       .  A
C517        C522   1.418       .  A
C518        C519   1.403       .  A
C518        H527   1.084       .  S
C519        C520   1.410       .  A
C519        S523   1.803       .  S
C520        C521   1.401       .  A
C521        C522   1.399       .  A
C521        H528   1.084       .  S
C522        S524   1.804       .  S
S523        H526   1.407       .  S
S524        H525   1.408       .  S
C529        C530   1.402       .  A
C529        C534   1.415       .  A
C530        C531   1.398       .  A
C530        H539   1.084       .  S
C531        C532   1.423   1_565  A
C531        S535   1.803   1_565  S
C532        C533   1.408   1_545  A
C533        C534   1.401       .  A
C533        H540   1.083       .  S
C534        S536   1.800       .  S
S535        H538   1.408       .  S
S536        H537   1.407       .  S
C541        C542   1.402       .  A
C541        C546   1.416       .  A
C542        C543   1.397       .  A
C542        H551   1.084       .  S
C543        C544   1.414       .  A
C543        S547   1.805       .  S
C544        C545   1.403       .  A
C545        C546   1.402       .  A
C545        H552   1.084       .  S
C546        S548   1.803       .  S
S547        H550   1.407       .  S
S548        H549   1.407       .  S
C553        C554   1.404       .  A
C553        C558   1.416       .  A
C554        C555   1.405       .  A
C554        H563   1.084       .  S
C555        C556   1.415       .  A
C555        S559   1.804       .  S
C556        C557   1.400       .  A
C557        C558   1.399       .  A
C557        H564   1.084       .  S
C558        S560   1.804       .  S
S559        H562   1.403       .  S
S560        H561   1.404       .  S
C565        C566   1.405       .  A
C565        C570   1.413       .  A
C566        C567   1.403       .  A
C566        H575   1.084       .  S
C567        C568   1.419   1_565  A
C567        S571   1.802   1_565  S
C568        C569   1.409       .  A
C569        C570   1.403   1_545  A
C569        H576   1.082       .  S
C570        S572   1.808       .  S
S571        H574   1.408       .  S
S572        H573   1.407       .  S
C577        C578   1.406       .  A
C577        C582   1.415       .  A
C578        C579   1.405       .  A
C578        H587   1.084       .  S
C579        C580   1.415       .  A
C579        S583   1.802       .  S
C580        C581   1.405       .  A
C581        C582   1.400       .  A
C581        H588   1.084       .  S
C582        S584   1.804       .  S
S583        H586   1.407       .  S
S584        H585   1.407       .  S
C589        C590   1.405       .  A
C589        C594   1.415       .  A
C590        C591   1.393       .  A
C590        H599   1.085       .  S
C591        C592   1.408       .  A
C591        S595   1.805       .  S
C592        C593   1.406       .  A
C593        C594   1.408       .  A
C593        H600   1.084       .  S
C594        S596   1.802       .  S
S595        H598   1.407       .  S
S596        H597   1.406       .  S
C601        C602   1.404       .  A
C601        C606   1.412       .  A
C602        C603   1.397       .  A
C602        H611   1.084       .  S
C603        C604   1.414       .  A
C603        S607   1.803       .  S
C604        C605   1.408       .  A
C605        C606   1.401       .  A
C605        H612   1.084       .  S
C606        S608   1.804       .  S
S607        H610   1.407       .  S
S608        H609   1.406       .  S
C613        C614   1.404       .  A
C613        C618   1.413       .  A
C614        C615   1.404       .  A
C614        H623   1.083       .  S
C615        C616   1.417       .  A
C615        S619   1.809       .  S
C616        C617   1.406       .  A
C617        C618   1.397       .  A
C617        H624   1.084       .  S
C618        S620   1.804       .  S
S619        H622   1.407       .  S
S620        H621   1.407       .  S
C625        C626   1.403       .  A
C625        C630   1.422       .  A
C626        C627   1.395   1_455  A
C626        H635   1.084       .  S
C627        C628   1.422       .  A
C627        S631   1.804       .  S
C628        C629   1.406       .  A
C629        C630   1.409   1_655  A
C629        H636   1.083       .  S
C630        S632   1.800       .  S
S631        H634   1.405       .  S
S632        H633   1.408       .  S
C637        C638   1.411       .  A
C637        C642   1.419       .  A
C638        C639   1.398   1_565  A
C638        H647   1.084       .  S
C639        C640   1.408       .  A
C639        S643   1.802       .  S
C640        C641   1.403       .  A
C641        C642   1.402   1_545  A
C641        H648   1.084       .  S
C642        S644   1.801       .  S
S643        H646   1.407       .  S
S644        H645   1.408       .  S
C649        C650   1.401       .  A
C649        C654   1.410       .  A
C650        C651   1.403       .  A
C650        H659   1.081       .  S
C651        C652   1.414       .  A
C651        S655   1.809       .  S
C652        C653   1.404       .  A
C653        C654   1.400       .  A
C653        H660   1.084       .  S
C654        S656   1.804       .  S
S655        H658   1.405       .  S
S656        H657   1.406       .  S
C661        C662   1.400       .  A
C661        C666   1.417       .  A
C662        C663   1.398       .  A
C662        H671   1.081       .  S
C663        C664   1.420       .  A
C663        S667   1.805       .  S
C664        C665   1.404       .  A
C665        C666   1.403       .  A
C665        H672   1.082       .  S
C666        S668   1.809       .  S
S667        H670   1.408       .  S
S668        H669   1.407       .  S
C673        C674   1.406   1_655  A
C673        C678   1.423       .  A
C674        C675   1.396       .  A
C674        H683   1.084   1_455  S
C675        C676   1.423       .  A
C675        S679   1.805       .  S
C676        C677   1.408       .  A
C677        C678   1.409   1_455  A
C677        H684   1.083       .  S
C678        S680   1.803       .  S
S679        H682   1.407       .  S
S680        H681   1.398       .  S
C685        C686   1.407       .  A
C685        C690   1.416       .  A
C686        C687   1.395   1_565  A
C686        H695   1.084       .  S
C687        C688   1.414       .  A
C687        S691   1.800       .  S
C688        C689   1.408       .  A
C689        C690   1.405   1_545  A
C689        H696   1.084       .  S
C690        S692   1.802       .  S
S691        H694   1.405       .  S
S692        H693   1.407       .  S
C697        C698   1.404       .  A
C697        C702   1.415       .  A
C698        C699   1.401       .  A
C698        H707   1.084       .  S
C699        C700   1.414       .  A
C699        S703   1.803       .  S
C700        C701   1.404       .  A
C701        C702   1.404       .  A
C701        H708   1.084       .  S
C702        S704   1.803       .  S
S703        H706   1.407       .  S
S704        H705   1.408       .  S
C709        C710   1.403       .  A
C709        C714   1.409       .  A
C710        C711   1.400       .  A
C710        H719   1.084       .  S
C711        C712   1.417       .  A
C711        S715   1.800       .  S
C712        C713   1.407       .  A
C713        C714   1.391       .  A
C713        H720   1.084   1_554  S
C714        S716   1.802       .  S
S715        H718   1.407       .  S
S716        H717   1.407       .  S
C721        C722   1.405       .  A
C721        C726   1.420       .  A
C722        C723   1.402       .  A
C722        H731   1.083       .  S
C723        C724   1.417       .  A
C723        S727   1.803       .  S
C724        C725   1.401       .  A
C725        C726   1.397       .  A
C725        H732   1.084       .  S
C726        S728   1.802       .  S
S727        H730   1.403       .  S
S728        H729   1.404       .  S
C733        C734   1.406       .  A
C733        C738   1.422       .  A
C734        C735   1.400       .  A
C734        H743   1.084       .  S
C735        C736   1.418       .  A
C735        S739   1.803       .  S
C736        C737   1.402       .  A
C737        C738   1.400       .  A
C737        H744   1.084       .  S
C738        S740   1.802       .  S
S739        H742   1.407       .  S
S740        H741   1.407       .  S
