geometry optimzed in LAMMPS
_audit_creation_date              2020-11-30 
_audit_creation_method            'lammps2cif' 
_symmetry_space_group_name_H-M    'P1' 
_symmetry_Int_Tables_number       1 
_symmetry_cell_setting            triclinic 
loop_ 
_symmetry_equiv_pos_as_xyz 
  x,y,z 
_cell_length_a                    49.12119140847278 
_cell_length_b                    48.65696556580999 
_cell_length_c                    48.69017090370072 
_cell_angle_alpha                 90.05891492106771 
_cell_angle_beta                  89.9494228215469 
_cell_angle_gamma                 90.08441033414593 
loop_ 
_atom_site_label 
_atom_site_type_symbol 
_atom_site_fract_x 
_atom_site_fract_y 
_atom_site_fract_z 
_atom_site_charge 
N1          N  0.80076377  0.92836540  0.53607044    -0.27210
N2          N  0.79141295  0.95308861  0.53062327    -0.35060
C3          C  0.80937081  0.96593279  0.51421670     0.01130
C4          C  0.83089547  0.94808755  0.50766321     0.07160
C5          C  0.82403937  0.92413731  0.52193487    -0.05940
H6          H  0.80616198  0.98635780  0.50619438     0.07830
H7          H  0.83473664  0.90473931  0.52153338     0.09030
Cu8        Cu  0.75173381  0.96491109  0.54189526     0.44170
Cu9        Cu  0.78124438  0.90455274  0.56518756     0.41990
Cu10       Cu  0.71935842  0.93699158  0.60032163     0.43880
N11         N  0.71090202  0.97268386  0.55266535    -0.34590
N12         N  0.69939430  0.96502236  0.57589269    -0.28850
C13         C  0.67465197  0.97710965  0.57831776    -0.04950
C14         C  0.66989080  0.99284240  0.55490303     0.07270
C15         C  0.69333697  0.98851859  0.53900382     0.01070
H16         H  0.66162723  0.97527792  0.59613597     0.08720
H17         H  0.69789517  0.99734685  0.51919565     0.07800
N18         N  0.74289455  0.90491787  0.61471589    -0.36040
N19         N  0.76380795  0.89311484  0.60223456    -0.28220
C20         C  0.77258835  0.87212181  0.61769910    -0.03460
C21         C  0.75644396  0.87044355  0.64098268     0.05150
C22         C  0.73783424  0.89160949  0.63824836     0.03240
H23         H  0.78899613  0.85860072  0.61171203     0.08350
H24         H  0.72098335  0.89654120  0.65164535     0.07180
N25         N  0.79986538  0.92609129  0.43610549    -0.27210
N26         N  0.79135610  0.95138700  0.43993427    -0.35060
C27         C  0.81094980  0.96542115  0.45294985     0.01130
C28         C  0.83268258  0.94778750  0.45921252     0.07160
C29         C  0.82425018  0.92272213  0.44826306    -0.05940
H30         H  0.80836009  0.98629474  0.46003688     0.07830
H31         H  0.83454268  0.90317276  0.45007250     0.09030
Cu32       Cu  0.75073892  0.96233023  0.43291596     0.44170
Cu33       Cu  0.77807347  0.90104726  0.41059317     0.41990
Cu34       Cu  0.72053529  0.93895536  0.37305561     0.43880
N35         N  0.70962955  0.96922796  0.42382476    -0.34590
N36         N  0.69914273  0.96390430  0.39954554    -0.28850
C37         C  0.67445351  0.97592741  0.39753835    -0.04950
C38         C  0.66825019  0.98861573  0.42247957     0.07270
C39         C  0.69128519  0.98320304  0.43859261     0.01070
H40         H  0.66245695  0.97642429  0.37893392     0.08720
H41         H  0.69540753  0.99088584  0.45898633     0.07800
N42         N  0.74426555  0.90714359  0.35833595    -0.36040
N43         N  0.76324320  0.89344535  0.37190632    -0.28220
C44         C  0.77239701  0.87289357  0.35618884    -0.03460
C45         C  0.75838449  0.87324830  0.33162420     0.05150
C46         C  0.74074476  0.89532848  0.33372604     0.03240
H47         H  0.78706574  0.85787295  0.36309514     0.08350
H48         H  0.72527807  0.90160410  0.31927420     0.07180
C49         C  0.85188855  0.95214267  0.48371074    -0.02400
N50         N  0.79919276  0.10080158  0.53861765    -0.27210
N51         N  0.78964534  0.07591115  0.53447484    -0.35060
C52         C  0.80944052  0.06061815  0.52341095     0.01130
C53         C  0.83211058  0.07724061  0.51762685     0.07160
C54         C  0.82439787  0.10279921  0.52792523    -0.05940
H55         H  0.80630102  0.03970566  0.51667227     0.07830
H56         H  0.83572864  0.12181779  0.52647648     0.09030
Cu57       Cu  0.74791096  0.06740334  0.53649648     0.44170
Cu58       Cu  0.77811690  0.12675983  0.56379707     0.41990
Cu59       Cu  0.72387670  0.08490796  0.59972490     0.43880
N60         N  0.70695435  0.06162876  0.54651601    -0.34590
N61         N  0.69982912  0.06381411  0.57241470    -0.28850
C62         C  0.67619020  0.05065411  0.57638809    -0.04950
C63         C  0.66641217  0.04080284  0.55130009     0.07270
C64         C  0.68678287  0.04889136  0.53274865     0.01070
H65         H  0.66772457  0.04655314  0.59649143     0.08720
H66         H  0.68868973  0.04216391  0.51171922     0.07800
N67         N  0.74522218  0.11744687  0.61607158    -0.36040
N68         N  0.76327392  0.13272263  0.60284392    -0.28220
C69         C  0.77093607  0.15350726  0.61903000    -0.03460
C70         C  0.75679589  0.15163974  0.64350915     0.05150
C71         C  0.74061882  0.12852115  0.64089165     0.03240
H72         H  0.78455359  0.16974415  0.61253927     0.08350
H73         H  0.72547764  0.12103278  0.65517976     0.07180
N74         N  0.79906992  0.09664258  0.44268695    -0.27210
N75         N  0.78932506  0.07215485  0.44855203    -0.35060
C76         C  0.80805006  0.05858194  0.46336711     0.01130
C77         C  0.83019867  0.07600490  0.46916734     0.07160
C78         C  0.82306963  0.10025443  0.45558954    -0.05940
H79         H  0.80477014  0.03815225  0.47135456     0.07830
H80         H  0.83404335  0.11952545  0.45571205     0.09030
Cu81       Cu  0.74812403  0.06243177  0.44123770     0.44170
Cu82       Cu  0.78001264  0.12045586  0.41348883     0.41990
Cu83       Cu  0.72258023  0.08355629  0.37766722     0.43880
N84         N  0.70705227  0.05711345  0.42982774    -0.34590
N85         N  0.69904309  0.06101511  0.40435967    -0.28850
C86         C  0.67477424  0.04871793  0.40045615    -0.04950
C87         C  0.66588898  0.03729250  0.42516157     0.07270
C88         C  0.68705627  0.04399425  0.44336680     0.01070
H89         H  0.66537961  0.04629327  0.38052271     0.08720
H90         H  0.68937647  0.03634083  0.46401316     0.07800
N91         N  0.74459529  0.11616295  0.36226569    -0.36040
N92         N  0.76395992  0.12982254  0.37536006    -0.28220
C93         C  0.77151441  0.15139271  0.36006297    -0.03460
C94         C  0.75604386  0.15159373  0.33628737     0.05150
C95         C  0.73919019  0.12889005  0.33846964     0.03240
H96         H  0.78619630  0.16658408  0.36669159     0.08350
H97         H  0.72313047  0.12266696  0.32462733     0.07180
C98         C  0.85116087  0.07207368  0.49315279    -0.02400
C99         C  0.64729866  0.01175223  0.42836339    -0.02400
C100        C  0.64818506  0.01512527  0.54857947    -0.02400
C101        C  0.67924682  0.76909448  0.14877135     0.03210
C102        C  0.69723628  0.74695632  0.15093813    -0.12940
C103        C  0.71019419  0.74127667  0.17584485     0.00710
C104        C  0.70543429  0.75833946  0.19843044    -0.11460
C105        C  0.68981489  0.78218936  0.19572809     0.03210
C106        C  0.67684408  0.78753014  0.17074444    -0.10880
H107        H  0.70100634  0.73397209  0.13334530     0.08800
H108        H  0.71402082  0.75306972  0.21820940     0.06330
H109        H  0.66473513  0.80588531  0.16857433     0.06180
C110        C  0.74303087  0.67193588  0.16446271     0.03210
C111        C  0.72416552  0.69345582  0.16375867    -0.12940
C112        C  0.72885770  0.71772837  0.17837019     0.00710
C113        C  0.75202373  0.71990160  0.19481981    -0.11460
C114        C  0.76960572  0.69759941  0.19815178     0.03210
C115        C  0.76509321  0.67358554  0.18272333    -0.10880
H116        H  0.70597800  0.69161761  0.15145359     0.08800
H117        H  0.75665584  0.73927545  0.20473936     0.06330
H118        H  0.77889033  0.65644189  0.18469056     0.06180
C119        C  0.82371207  0.75529935  0.32729170     0.03210
C120        C  0.82571229  0.73627782  0.30566548    -0.12940
C121        C  0.81096927  0.74017155  0.28135128     0.00710
C122        C  0.79428334  0.76334568  0.27897888    -0.11460
C123        C  0.79031069  0.78108639  0.30127108     0.03210
C124        C  0.80470575  0.77654559  0.32556033    -0.10880
H125        H  0.83892430  0.71867837  0.30753233     0.08800
H126        H  0.78458947  0.76778380  0.25952702     0.06330
H127        H  0.80140541  0.78987142  0.34297935     0.06180
C128        C  0.75746776  0.85077645  0.31141639     0.03210
C129        C  0.77622142  0.82919865  0.31291778    -0.12940
C130        C  0.77141917  0.80451364  0.29888837     0.00710
C131        C  0.74797865  0.80196568  0.28289090    -0.11460
C132        C  0.73084007  0.82446159  0.27867080     0.03210
C133        C  0.73590257  0.84899369  0.29280399    -0.10880
H134        H  0.79426564  0.83148212  0.32538762     0.08800
H135        H  0.74294555  0.78229251  0.27380715     0.06330
H136        H  0.72265108  0.86640332  0.28986165     0.06180
C137        C  0.66232832  0.83548166  0.24524657     0.03210
C138        C  0.68352206  0.83655018  0.26434568    -0.12940
C139        C  0.70757158  0.82193421  0.25976643     0.00710
C140        C  0.70973214  0.80533385  0.23644125    -0.11460
C141        C  0.68746344  0.80139479  0.21905417     0.03210
C142        C  0.66364869  0.81646870  0.22365993    -0.10880
H143        H  0.68163915  0.84933457  0.28236072     0.08800
H144        H  0.72896867  0.79563440  0.23158918     0.06330
H145        H  0.64644186  0.81380280  0.21012774     0.06180
C146        C  0.83989070  0.69000199  0.22919400     0.03210
C147        C  0.83791730  0.70755204  0.25194740    -0.12940
C148        C  0.81330144  0.72081739  0.25795978     0.00710
C149        C  0.79065369  0.71588152  0.24115269    -0.11460
C150        C  0.79299936  0.70021143  0.21710806     0.03210
C151        C  0.81784265  0.68767521  0.21111106    -0.10880
H152        H  0.85538467  0.71070890  0.26503426     0.08800
H153        H  0.77108303  0.72442630  0.24677185     0.06330
H154        H  0.82000882  0.67604027  0.19232297     0.06180
N155        N  0.91477924  0.81135405  0.54266924    -0.27210
N156        N  0.94037322  0.80393122  0.54039370    -0.35060
C157        C  0.95448719  0.82457270  0.52859284     0.01130
C158        C  0.93649297  0.84558518  0.52093807     0.07160
C159        C  0.91138779  0.83574686  0.53039123    -0.05940
H160        H  0.97530221  0.82246646  0.52169684     0.07830
H161        H  0.89159861  0.84438401  0.52594517     0.09030
Cu162      Cu  0.94955013  0.76216011  0.54362966     0.44170
Cu163      Cu  0.88663933  0.78599394  0.56146040     0.41990
Cu164      Cu  0.91750127  0.72464217  0.59670167     0.43880
N165        N  0.95317377  0.71971815  0.54929684    -0.34590
N166        N  0.94627419  0.70734597  0.57224760    -0.28850
C167        C  0.95890957  0.68287068  0.57381970    -0.04950
C168        C  0.97539727  0.67984271  0.55073770     0.07270
C169        C  0.96852656  0.70252349  0.53462316     0.01070
H170        H  0.95737934  0.66920772  0.59125110     0.08720
H171        H  0.97467346  0.70687782  0.51388778     0.07800
N172        N  0.87984681  0.74082611  0.60386536    -0.36040
N173        N  0.86829747  0.76172332  0.59106119    -0.28220
C174        C  0.84439698  0.76713408  0.60325343    -0.03460
C175        C  0.84075162  0.74868527  0.62466670     0.05150
C176        C  0.86361777  0.73221612  0.62410967     0.03240
H177        H  0.83188455  0.78464767  0.59815400     0.08350
H178        H  0.86941011  0.71644526  0.63856837     0.07180
N179        N  0.94492964  0.70788432  0.40736021    -0.27210
N180        N  0.95269069  0.71904287  0.43066145    -0.35060
C181        C  0.97008048  0.70188994  0.44289054     0.01130
C182        C  0.97587746  0.67977306  0.42537755     0.07160
C183        C  0.95804281  0.68384957  0.40352063    -0.05940
H184        H  0.97731296  0.70529418  0.46343108     0.07830
H185        H  0.95531585  0.67080862  0.38574699     0.09030
Cu186      Cu  0.94253224  0.75928292  0.44226082     0.44170
Cu187      Cu  0.91557892  0.72700931  0.38497966     0.41990
Cu188      Cu  0.88564747  0.79351623  0.41527783     0.43880
N189        N  0.93298633  0.80028348  0.45156312    -0.34590
N190        N  0.91051237  0.81277911  0.44380368    -0.28850
C191        C  0.90881226  0.83749479  0.45657835    -0.04950
C192        C  0.93191612  0.84120706  0.47296051     0.07270
C193        C  0.94675539  0.81701454  0.46834562     0.01070
H194        H  0.89161283  0.85119395  0.45471702     0.08720
H195        H  0.96608571  0.81148930  0.47728600     0.07800
N196        N  0.86956521  0.76890798  0.38435376    -0.36040
N197        N  0.88034957  0.74624828  0.37394369    -0.28220
C198        C  0.86472886  0.73701885  0.35344600    -0.03460
C199        C  0.84305640  0.75469588  0.35036952     0.05150
C200        C  0.84679317  0.77468733  0.37037566     0.03240
H201        H  0.86979179  0.71931298  0.34105180     0.08350
H202        H  0.83481150  0.79297977  0.37381129     0.07180
C203        C  0.93937772  0.86345717  0.49510114    -0.02400
N204        N  0.06175792  0.70333581  0.55870067    -0.27210
N205        N  0.04840666  0.71893184  0.54129056    -0.35060
C206        C  0.02799213  0.70414856  0.53088976     0.01130
C207        C  0.02548185  0.67924691  0.54516679     0.07160
C208        C  0.04910146  0.67882751  0.56098235    -0.05940
H209        H  0.01562001  0.71218676  0.51476803     0.07830
H210        H  0.05574814  0.66263608  0.57458259     0.09030
Cu211      Cu  0.05242987  0.76192020  0.53806007     0.44170
Cu212      Cu  0.09495587  0.71828726  0.57882357     0.41990
Cu213      Cu  0.11410446  0.79024597  0.55829702     0.43880
N214        N  0.06043482  0.80423003  0.53426872    -0.34590
N215        N  0.08534807  0.81355110  0.53769054    -0.28850
C216        C  0.08798161  0.83767478  0.52442689    -0.04950
C217        C  0.06308258  0.84495765  0.51252449     0.07270
C218        C  0.04594701  0.82326121  0.52057849     0.01070
H219        H  0.10740884  0.84755364  0.52090896     0.08720
H220        H  0.02568639  0.81942792  0.51283173     0.07800
N221        N  0.13425989  0.76548216  0.58638290    -0.36040
N222        N  0.12716160  0.74027781  0.59363259    -0.28220
C223        C  0.14260969  0.73201594  0.61467919    -0.03460
C224        C  0.16028108  0.75303901  0.62134300     0.05150
C225        C  0.15446486  0.77390340  0.60287028     0.03240
H226        H  0.13982669  0.71266799  0.62520412     0.08350
H227        H  0.16267391  0.79453409  0.60270050     0.07180
N228        N  0.06375748  0.69702605  0.41772206    -0.27210
N229        N  0.05231874  0.71165236  0.43727448    -0.35060
C230        C  0.03061115  0.69803048  0.44654998     0.01130
C231        C  0.02569737  0.67501389  0.43001957     0.07160
C232        C  0.04879694  0.67411750  0.41328572    -0.05940
H233        H  0.01898066  0.70548196  0.46358176     0.07830
H234        H  0.05349509  0.65903066  0.39769711     0.09030
Cu235      Cu  0.06094728  0.75307207  0.44479815     0.44170
Cu236      Cu  0.09727298  0.71266719  0.39787622     0.41990
Cu237      Cu  0.12112785  0.78368161  0.42257982     0.43880
N238        N  0.06887291  0.79507243  0.44937302    -0.34590
N239        N  0.09269832  0.80625693  0.44405299    -0.28850
C240        C  0.09306111  0.83235420  0.45358753    -0.04950
C241        C  0.06759580  0.83852829  0.46471259     0.07270
C242        C  0.05296578  0.81401556  0.46114403     0.01070
H243        H  0.11092307  0.84536311  0.45359671     0.08720
H244        H  0.03256811  0.80967975  0.46823427     0.07800
N245        N  0.13819970  0.75956159  0.39211745    -0.36040
N246        N  0.12961851  0.73530659  0.38325604    -0.28220
C247        C  0.14358734  0.72841665  0.36063964    -0.03460
C248        C  0.16173158  0.74932148  0.35472303     0.05150
C249        C  0.15775670  0.76864611  0.37522388     0.03240
H250        H  0.13939479  0.71022331  0.34861459     0.08350
H251        H  0.16668580  0.78891658  0.37669214     0.07180
C252        C  0.05984626  0.86136244  0.48523134    -0.02400
C253        C  0.99869646  0.65803577  0.42912281    -0.02400
C254        C  0.99986038  0.66024041  0.54610336    -0.02400
N255        N  0.58525713  0.95991928  0.29147757    -0.27210
N256        N  0.56105613  0.96477823  0.28107946    -0.35060
C257        C  0.54658998  0.97925126  0.29939324     0.01130
C258        C  0.56306135  0.98586771  0.32196249     0.07160
C259        C  0.58766652  0.97296039  0.31577753    -0.05940
H260        H  0.52645642  0.98707921  0.29520756     0.07830
H261        H  0.60648000  0.97425783  0.32721177     0.09030
Cu262      Cu  0.55315065  0.95879120  0.23929315     0.44170
Cu263      Cu  0.61097790  0.93349910  0.27127573     0.41990
Cu264      Cu  0.58372604  0.90434473  0.20412144     0.43880
N265        N  0.54842722  0.95192477  0.19711656    -0.34590
N266        N  0.55727281  0.92978269  0.18448850    -0.28850
C267        C  0.54476035  0.92729208  0.15999127    -0.04950
C268        C  0.52583051  0.94841888  0.15749282     0.07270
C269        C  0.53120697  0.96490465  0.18041070     0.01070
H270        H  0.54788070  0.91023873  0.14613447     0.08720
H271        H  0.52279505  0.98464247  0.18537384     0.07800
N272        N  0.61079402  0.88618601  0.23018786    -0.36040
N273        N  0.62098224  0.89657294  0.25309602    -0.28220
C274        C  0.63926856  0.87895036  0.26324891    -0.03460
C275        C  0.64088317  0.85651800  0.24578198     0.05150
C276        C  0.62242698  0.86189595  0.22511106     0.03240
H277        H  0.65130954  0.88310621  0.28134684     0.08350
H278        H  0.61874722  0.85009124  0.20666817     0.07180
N279        N  0.44057328  0.93424161  0.18098046    -0.27210
N280        N  0.45128160  0.95459180  0.19509620    -0.35060
C281        C  0.47103108  0.96587155  0.18011395     0.01130
C282        C  0.47573247  0.94980309  0.15677317     0.07160
C283        C  0.45430567  0.93105283  0.15721234    -0.05940
H284        H  0.48132275  0.98418207  0.18660826     0.07830
H285        H  0.44993247  0.91518284  0.14230655     0.09030
Cu286      Cu  0.44480370  0.96128586  0.23695864     0.44170
Cu287      Cu  0.40855547  0.91306518  0.19686195     0.41990
Cu288      Cu  0.38279218  0.94142944  0.26458450     0.43880
N289        N  0.43568899  0.96691280  0.27845301    -0.34590
N290        N  0.41073016  0.96347022  0.28762945    -0.28850
C291        C  0.40831932  0.97592815  0.31222141    -0.04950
C292        C  0.43354270  0.98677349  0.31997400     0.07270
C293        C  0.45037281  0.97995428  0.29774735     0.01070
H294        H  0.38918138  0.97850571  0.32291096     0.08720
H295        H  0.47096445  0.98705940  0.29438548     0.07800
N296        N  0.36534779  0.91036114  0.24120314    -0.36040
N297        N  0.37486695  0.90040082  0.21780278    -0.28220
C298        C  0.36039350  0.87829535  0.21050339    -0.03460
C299        C  0.34082594  0.87369097  0.23029989     0.05150
C300        C  0.34453924  0.89451972  0.24943627     0.03240
H301        H  0.36517010  0.86572008  0.19284652     0.08350
H302        H  0.33437425  0.89696253  0.26898461     0.07180
C303        C  0.50113812  0.95128945  0.13786708    -0.02400
N304        N  0.58553879  0.05870413  0.28814831    -0.27210
N305        N  0.56107771  0.05391445  0.27827086    -0.35060
C306        C  0.54664430  0.04027541  0.29733840     0.01130
C307        C  0.56323409  0.03447023  0.32008337     0.07160
C308        C  0.58807073  0.04641124  0.31279785    -0.05940
H309        H  0.52619217  0.03287303  0.29385748     0.07830
H310        H  0.60691204  0.04554201  0.32422757     0.09030
Cu311      Cu  0.55205741  0.06080165  0.23665280     0.44170
Cu312      Cu  0.61105455  0.08553792  0.26792390     0.41990
Cu313      Cu  0.58076951  0.11804599  0.20399020     0.43880
N314        N  0.54651692  0.06969175  0.19476968    -0.34590
N315        N  0.55431942  0.09289035  0.18337799    -0.28850
C316        C  0.54195904  0.09588538  0.15881699    -0.04950
C317        C  0.52485612  0.07338932  0.15437088     0.07270
C318        C  0.53034198  0.05650920  0.17705378     0.01070
H319        H  0.54447813  0.11382923  0.14605293     0.08720
H320        H  0.52201951  0.03648626  0.18128457     0.07800
N321        N  0.60972045  0.13483705  0.22935541    -0.36040
N322        N  0.62102985  0.12322626  0.25108689    -0.28220
C323        C  0.63969467  0.14045340  0.26146448    -0.03460
C324        C  0.64028828  0.16400625  0.24548572     0.05150
C325        C  0.62099927  0.15954823  0.22528925     0.03240
H326        H  0.65238536  0.13554511  0.27889698     0.08350
H327        H  0.61605876  0.17260931  0.20807050     0.07180
N328        N  0.41101310  0.05927967  0.28757740    -0.27210
N329        N  0.43562208  0.05479470  0.27787339    -0.35060
C330        C  0.45001816  0.04136920  0.29703040     0.01130
C331        C  0.43333352  0.03539452  0.31968050     0.07160
C332        C  0.40850868  0.04725425  0.31241511    -0.05940
H333        H  0.47038410  0.03376282  0.29351067     0.07830
H334        H  0.38947413  0.04564894  0.32346781     0.09030
Cu335      Cu  0.44524274  0.06085470  0.23623870     0.44170
Cu336      Cu  0.38377658  0.08228217  0.26502750     0.41990
Cu337      Cu  0.41316196  0.11371789  0.19982566     0.43880
N338        N  0.45272786  0.06933834  0.19458932    -0.34590
N339        N  0.44374177  0.09146087  0.18207188    -0.28850
C340        C  0.45676984  0.09453250  0.15784441    -0.04950
C341        C  0.47553746  0.07324260  0.15485671     0.07270
C342        C  0.47049751  0.05682890  0.17798815     0.01070
H343        H  0.45312814  0.11143183  0.14397133     0.08720
H344        H  0.47961389  0.03742960  0.18310149     0.07800
N345        N  0.37782125  0.12467234  0.21939159    -0.36040
N346        N  0.36704655  0.11343288  0.24163197    -0.28220
C347        C  0.34481163  0.12773254  0.24871547    -0.03460
C348        C  0.34137215  0.14891940  0.23003625     0.05150
C349        C  0.36267351  0.14612280  0.21169718     0.03240
H350        H  0.33323363  0.12386785  0.26719911     0.08350
H351        H  0.36800889  0.15947622  0.19480518     0.07180
C352        C  0.49996490  0.06992626  0.13471630    -0.02400
C353        C  0.43830955  0.01123646  0.33978421    -0.02400
C354        C  0.55833540  0.01088066  0.34099601    -0.02400
C355        C  0.17739262  0.75319700  0.32916810     0.03210
C356        C  0.19481242  0.77570840  0.32651474    -0.12940
C357        C  0.20653886  0.78235626  0.30110930     0.00710
C358        C  0.20039744  0.76604712  0.27825980    -0.11460
C359        C  0.18596684  0.74135561  0.28133068     0.03210
C360        C  0.17437088  0.73517474  0.30697367    -0.10880
H361        H  0.19977278  0.78757467  0.34457334     0.08800
H362        H  0.20754343  0.77214012  0.25816285     0.06330
H363        H  0.16323373  0.71629322  0.30983022     0.06180
C364        C  0.25535955  0.67373400  0.16578348     0.03210
C365        C  0.23355951  0.67557638  0.18403599    -0.12940
C366        C  0.22669964  0.70071159  0.19629458     0.00710
C367        C  0.24244098  0.72406769  0.19026337    -0.11460
C368        C  0.26646826  0.72177662  0.17475104     0.03210
C369        C  0.27239558  0.69643258  0.16230051    -0.10880
H370        H  0.22235430  0.65715089  0.18904518     0.08800
H371        H  0.23629032  0.74379386  0.19833801     0.06330
H372        H  0.29080404  0.69390306  0.15058023     0.06180
C373        C  0.16249533  0.68284815  0.23560775     0.03210
C374        C  0.16267568  0.70292321  0.25613372    -0.12940
C375        C  0.18429938  0.72164286  0.25814358     0.00710
C376        C  0.20547761  0.72023433  0.23878949    -0.11460
C377        C  0.20408516  0.70212205  0.21645319     0.03210
C378        C  0.18209318  0.68385036  0.21479656    -0.10880
H379        H  0.14610490  0.70360307  0.27069099     0.08800
H380        H  0.22357835  0.73259028  0.24161759     0.06330
H381        H  0.18074972  0.66971815  0.19778047     0.06180
C382        C  0.33083615  0.76030298  0.15706554     0.03210
C383        C  0.30711545  0.74484438  0.15371060    -0.12940
C384        C  0.28718760  0.74415110  0.17431284     0.00710
C385        C  0.28938239  0.76277298  0.19624289    -0.11460
C386        C  0.31222913  0.77999505  0.19891649     0.03210
C387        C  0.33356292  0.77735776  0.18000287    -0.10880
H388        H  0.30449712  0.73286550  0.13522061     0.08800
H389        H  0.27346675  0.76370839  0.21143173     0.06330
H390        H  0.35224754  0.78871963  0.18301583     0.06180
C391        C  0.32386177  0.84887444  0.23336787     0.03210
C392        C  0.32616918  0.82685686  0.21502198    -0.12940
C393        C  0.31287925  0.80183184  0.22022147     0.00710
C394        C  0.29798079  0.79897988  0.24463118    -0.11460
C395        C  0.29250096  0.82190839  0.26116336     0.03210
C396        C  0.30560587  0.84683406  0.25517348    -0.10880
H397        H  0.33775071  0.82947865  0.19638418     0.08800
H398        H  0.28985750  0.77912084  0.25017781     0.06330
H399        H  0.30116038  0.86506546  0.26694527     0.06180
C400        C  0.24900509  0.84352125  0.32111821     0.03210
C401        C  0.22653531  0.82631233  0.31810186    -0.12940
C402        C  0.22720845  0.80447814  0.29942949     0.00710
C403        C  0.24918318  0.80260268  0.28103514    -0.11460
C404        C  0.27123179  0.82095976  0.28279324     0.03210
C405        C  0.27165248  0.84007043  0.30427353    -0.10880
H406        H  0.20871557  0.82963648  0.33073120     0.08800
H407        H  0.24914902  0.78678771  0.26553487     0.06330
H408        H  0.28951078  0.85257270  0.30783641     0.06180
N409        N  0.19936633  0.10142242  0.53800121    -0.27210
N410        N  0.21013573  0.07727796  0.53258413    -0.35060
C411        C  0.19258493  0.06271285  0.51762361     0.01130
C412        C  0.16922871  0.07834536  0.51275404     0.07160
C413        C  0.17465394  0.10321073  0.52589216    -0.05940
H414        H  0.19677803  0.04213943  0.51045903     0.07830
H415        H  0.16200575  0.12137705  0.52607231     0.09030
Cu416      Cu  0.24932121  0.06580235  0.54344024     0.44170
Cu417      Cu  0.22091912  0.12779593  0.56275174     0.41990
Cu418      Cu  0.28322987  0.09376270  0.59853530     0.43880
N419        N  0.28850655  0.05447316  0.55444875    -0.34590
N420        N  0.30085134  0.06266128  0.57695053    -0.28850
C421        C  0.32549241  0.05049073  0.57881917    -0.04950
C422        C  0.32925684  0.03431493  0.55555039     0.07270
C423        C  0.30506649  0.03772548  0.54077742     0.01070
H424        H  0.33945768  0.05335875  0.59572236     0.08720
H425        H  0.29990590  0.02904482  0.52105800     0.07800
N426        N  0.26690459  0.13192564  0.60491900    -0.36040
N427        N  0.24620321  0.14401067  0.59240999    -0.28220
C428        C  0.24162042  0.16831406  0.60443991    -0.03460
C429        C  0.26022276  0.17168299  0.62550196     0.05150
C430        C  0.27603652  0.14828133  0.62490435     0.03240
H431        H  0.22456534  0.18135238  0.59937190     0.08350
H432        H  0.29169231  0.14220532  0.63924085     0.07180
N433        N  0.19492867  0.09254598  0.43733823    -0.27210
N434        N  0.20339527  0.06727447  0.44159797    -0.35060
C435        C  0.18489886  0.05423633  0.45732606     0.01130
C436        C  0.16413334  0.07251056  0.46503742     0.07160
C437        C  0.17184357  0.09679816  0.45170866    -0.05940
H438        H  0.18820687  0.03406542  0.46579319     0.07830
H439        H  0.16259617  0.11679967  0.45423733     0.09030
Cu440      Cu  0.24390340  0.05618329  0.43269548     0.44170
Cu441      Cu  0.21749767  0.11897752  0.41283694     0.41990
Cu442      Cu  0.27729777  0.08576407  0.37574239     0.43880
N443        N  0.28523684  0.04980409  0.42285482    -0.34590
N444        N  0.29622900  0.05665301  0.39917041    -0.28850
C445        C  0.32135135  0.04554026  0.39705637    -0.04950
C446        C  0.32730802  0.03177484  0.42137273     0.07270
C447        C  0.30378867  0.03590590  0.43730466     0.01070
H448        H  0.33412626  0.04715856  0.37903476     0.08720
H449        H  0.29984994  0.02821527  0.45770396     0.07800
N450        N  0.26157699  0.12428062  0.36895784    -0.36040
N451        N  0.24134947  0.13644671  0.38219229    -0.28220
C452        C  0.23716195  0.16126324  0.37091612    -0.03460
C453        C  0.25571819  0.16494322  0.34972517     0.05150
C454        C  0.27087509  0.14104436  0.34932202     0.03240
H455        H  0.22080068  0.17483448  0.37691765     0.08350
H456        H  0.28657706  0.13527442  0.33486887     0.07180
C457        C  0.34992759  0.01030299  0.42780540    -0.02400
C458        C  0.14706489  0.07050132  0.49206514    -0.02400
C459        C  0.35157799  0.01359017  0.54786894    -0.02400
N460        N  0.20190355  0.92122137  0.53308959    -0.27210
N461        N  0.21316059  0.94475098  0.52605700    -0.35060
C462        C  0.19465818  0.95930941  0.51220357     0.01130
C463        C  0.17096887  0.94353226  0.50817665     0.07160
C464        C  0.17663962  0.91931289  0.52219619    -0.05940
H465        H  0.19872295  0.97968871  0.50450291     0.07830
H466        H  0.16359039  0.90150270  0.52411031     0.09030
Cu467      Cu  0.25473689  0.95432068  0.53239470     0.44170
Cu468      Cu  0.22083001  0.89789169  0.56217518     0.41990
Cu469      Cu  0.27960944  0.93626321  0.59611274     0.43880
N470        N  0.29529270  0.96308562  0.54402092    -0.34590
N471        N  0.30297699  0.95964104  0.56964891    -0.28850
C472        C  0.32603248  0.97393988  0.57419271    -0.04950
C473        C  0.33461594  0.98643715  0.54980210     0.07270
C474        C  0.31442982  0.97813363  0.53106884     0.01070
H475        H  0.33461207  0.97711433  0.59440166     0.08720
H476        H  0.31187927  0.98594362  0.51053468     0.07800
N477        N  0.25582848  0.90564913  0.61336861    -0.36040
N478        N  0.23606342  0.89193690  0.60094525    -0.28220
C479        C  0.22681438  0.87229863  0.61768507    -0.03460
C480        C  0.24154923  0.87320510  0.64182025     0.05150
C481        C  0.25979770  0.89467927  0.63832827     0.03240
H482        H  0.21154025  0.85745024  0.61170468     0.08350
H483        H  0.27587831  0.90102694  0.65209292     0.07180
N484        N  0.19889361  0.92740480  0.43716570    -0.27210
N485        N  0.20707812  0.95279665  0.44111040    -0.35060
C486        C  0.18665445  0.96664261  0.45331711     0.01130
C487        C  0.16542050  0.94838268  0.46011900     0.07160
C488        C  0.17439179  0.92367524  0.44873980    -0.05940
H489        H  0.18893083  0.98728710  0.46098663     0.07830
H490        H  0.16519789  0.90363776  0.45132884     0.09030
Cu491      Cu  0.24913777  0.96184224  0.43812732     0.44170
Cu492      Cu  0.22218349  0.90055346  0.41532441     0.41990
Cu493      Cu  0.27690283  0.93836374  0.37692060     0.43880
N494        N  0.29125337  0.96449757  0.42922732    -0.34590
N495        N  0.29979814  0.96052327  0.40396563    -0.28850
C496        C  0.32435762  0.97218340  0.40059993    -0.04950
C497        C  0.33289072  0.98360710  0.42542375     0.07270
C498        C  0.31145297  0.97672656  0.44334779     0.01070
H499        H  0.33396021  0.97469523  0.38076332     0.08720
H500        H  0.30886134  0.98438414  0.46393718     0.07800
N501        N  0.25831676  0.90261222  0.36510789    -0.36040
N502        N  0.24018745  0.88851088  0.37946075    -0.28220
C503        C  0.23383654  0.86550881  0.36585397    -0.03460
C504        C  0.24896919  0.86498549  0.34203817     0.05150
C505        C  0.26431013  0.88872495  0.34218791     0.03240
H506        H  0.21939032  0.85031836  0.37301698     0.08350
H507        H  0.27879348  0.89554758  0.32688653     0.07180
C508        C  0.14830546  0.95021226  0.48682178    -0.02400
N509        N  0.55340456  0.81531105  0.90552703    -0.27210
N510        N  0.54373301  0.80244196  0.92716709    -0.35060
C511        C  0.52712847  0.81953809  0.94048511     0.01130
C512        C  0.52308539  0.84332183  0.92482371     0.07160
C513        C  0.54175351  0.84027948  0.90346491    -0.05940
H514        H  0.51819041  0.81434328  0.95996206     0.07830
H515        H  0.54638440  0.85470420  0.88727347     0.09030
Cu516      Cu  0.54826046  0.76030450  0.93436077     0.44170
Cu517      Cu  0.58380929  0.79791364  0.88308205     0.41990
Cu518      Cu  0.61120089  0.73376889  0.91543798     0.43880
N519        N  0.55814244  0.71915659  0.94133707    -0.34590
N520        N  0.58344814  0.71095194  0.93820232    -0.28850
C521        C  0.58702509  0.68749184  0.95225421    -0.04950
C522        C  0.56225011  0.67903153  0.96382889     0.07270
C523        C  0.54439541  0.69999130  0.95572760     0.01070
H524        H  0.60680920  0.67842666  0.95573974     0.08720
H525        H  0.52388383  0.70297031  0.96316954     0.07800
N526        N  0.63024513  0.75711720  0.88522424    -0.36040
N527        N  0.61992370  0.77938867  0.87372659    -0.28220
C528        C  0.63623625  0.78783837  0.85344462    -0.03460
C529        C  0.65796992  0.76996042  0.85155508     0.05150
C530        C  0.65347553  0.75070264  0.87213640     0.03240
H531        H  0.63142798  0.80492792  0.84016450     0.08350
H532        H  0.66513897  0.73236301  0.87631597     0.07180
N533        N  0.44444701  0.81770395  0.90434929    -0.27210
N534        N  0.45242627  0.80512919  0.92680891    -0.35060
C535        C  0.46811748  0.82240926  0.94105205     0.01130
C536        C  0.47387406  0.84568905  0.92514818     0.07160
C537        C  0.45671290  0.84243451  0.90257930    -0.05940
H538        H  0.47621306  0.81730675  0.96091524     0.07830
H539        H  0.45393774  0.85627737  0.88549622     0.09030
Cu540      Cu  0.44943557  0.76248968  0.93232171     0.44170
Cu541      Cu  0.41529347  0.80000310  0.88037342     0.41990
Cu542      Cu  0.38584836  0.73814522  0.91509903     0.43880
N543        N  0.44001005  0.72067180  0.93590219    -0.34590
N544        N  0.41431290  0.71338740  0.93407046    -0.28850
C545        C  0.41094242  0.68893738  0.94620598    -0.04950
C546        C  0.43612689  0.67872439  0.95489019     0.07270
C547        C  0.45416700  0.69976726  0.94718606     0.01070
H548        H  0.39116036  0.68022856  0.95070252     0.08720
H549        H  0.47517730  0.70154403  0.95349715     0.07800
N550        N  0.36719850  0.76109486  0.88470902    -0.36040
N551        N  0.37837267  0.78232135  0.87203926    -0.28220
C552        C  0.36225450  0.79030767  0.85148566    -0.03460
C553        C  0.33979910  0.77315575  0.85066537     0.05150
C554        C  0.34365089  0.75484821  0.87214252     0.03240
H555        H  0.36771531  0.80642110  0.83724979     0.08350
H556        H  0.33136814  0.73712177  0.87723769     0.07180
C557        C  0.49949830  0.86425273  0.92877529    -0.02400
N558        N  0.44505454  0.81381810  0.06970836    -0.27210
N559        N  0.45228719  0.80317721  0.04598822    -0.35060
C560        C  0.46925974  0.82080314  0.03360787     0.01130
C561        C  0.47507619  0.84291006  0.05123807     0.07160
C562        C  0.45798363  0.83798852  0.07360566    -0.05940
H563        H  0.47749482  0.81717129  0.01341587     0.07830
H564        H  0.45558922  0.85026987  0.09190781     0.09030
Cu565      Cu  0.44279870  0.76247389  0.03487809     0.44170
Cu566      Cu  0.41858075  0.79259100  0.09422524     0.41990
Cu567      Cu  0.38985921  0.72441445  0.06643131     0.43880
N568        N  0.43350117  0.72124837  0.02558173    -0.34590
N569        N  0.41206855  0.70765584  0.03457913    -0.28850
C570        C  0.41013797  0.68326623  0.02115535    -0.04950
C571        C  0.43200048  0.68100774  0.00295282     0.07270
C572        C  0.44656824  0.70544303  0.00748280     0.01070
H573        H  0.39382412  0.66864066  0.02415446     0.08720
H574        H  0.46529177  0.71175610  0.99775215     0.07800
N575        N  0.37735090  0.74612189  0.10076278    -0.36040
N576        N  0.38769706  0.76935147  0.11045111    -0.28220
C577        C  0.37318714  0.77748297  0.13225085    -0.03460
C578        C  0.35268566  0.75862561  0.13655789     0.05150
C579        C  0.35605682  0.73889729  0.11638821     0.03240
H580        H  0.37674129  0.79646663  0.14325857     0.08350
H581        H  0.34376054  0.72079073  0.11285782     0.07180
N582        N  0.55816304  0.81873100  0.06837433    -0.27210
N583        N  0.54925551  0.80580620  0.04645659    -0.35540
C584        C  0.52991486  0.82100167  0.03476191     0.01130
C585        C  0.52436693  0.84394257  0.05120774     0.07160
C586        C  0.54391763  0.84217532  0.07191468    -0.05940
H587        H  0.52024546  0.81508761  0.01584920     0.07830
H588        H  0.54717265  0.85621394  0.08879705     0.09030
Cu589      Cu  0.55952797  0.76537508  0.03709402     0.44170
Cu590      Cu  0.58948416  0.80142647  0.08983600     0.41990
Cu591      Cu  0.61800399  0.73298999  0.06094455     0.43880
N592        N  0.56780526  0.72392996  0.03037170    -0.34590
N593        N  0.59085595  0.71176992  0.03674942    -0.28850
C594        C  0.59132845  0.68629035  0.02553687    -0.04950
C595        C  0.56677637  0.68188469  0.01188327     0.07270
C596        C  0.55250625  0.70639988  0.01606615     0.01070
H597        H  0.60866809  0.67263978  0.02613152     0.08720
H598        H  0.53276949  0.71175730  0.00794606     0.07800
N599        N  0.63479451  0.75837756  0.09041513    -0.36040
N600        N  0.62462919  0.78143937  0.10060106    -0.28220
C601        C  0.64025932  0.78996121  0.12139716    -0.03460
C602        C  0.66115536  0.77133977  0.12484104     0.05150
C603        C  0.65706603  0.75167093  0.10470894     0.03240
H604        H  0.63543623  0.80758497  0.13400319     0.08350
H605        H  0.66806110  0.73267576  0.10175572     0.07180
C606        C  0.49939379  0.86325107  0.04790650    -0.02400
C607        C  0.55913996  0.66058654  0.98992171    -0.02400
C608        C  0.43913700  0.65968737  0.97993785    -0.02400
C609        C  0.17722788  0.75526975  0.64618647     0.03210
C610        C  0.19510653  0.77743440  0.64900004    -0.12940
C611        C  0.20777605  0.78280540  0.67413154     0.00710
C612        C  0.20276034  0.76536779  0.69638038    -0.11460
C613        C  0.18735820  0.74128352  0.69314847     0.03210
C614        C  0.17444648  0.73647555  0.66788085    -0.10880
H615        H  0.19917738  0.79050195  0.63153107     0.08800
H616        H  0.21107713  0.77058618  0.71629358     0.06330
H617        H  0.16218315  0.71827817  0.66513065     0.06180
C618        C  0.16162716  0.68519393  0.74119511     0.03210
C619        C  0.16263389  0.70420413  0.71957140    -0.12940
C620        C  0.18542288  0.72135489  0.71616516     0.00710
C621        C  0.20723000  0.71885152  0.73458218    -0.11460
C622        C  0.20536222  0.70187711  0.75765903     0.03210
C623        C  0.18205546  0.68563489  0.76114881    -0.10880
H624        H  0.14576530  0.70537804  0.70540798     0.08800
H625        H  0.22603765  0.72974924  0.73063780     0.06330
H626        H  0.18029336  0.67250249  0.77889830     0.06180
C627        C  0.33588513  0.83715995  0.73164478     0.03210
C628        C  0.33423930  0.81827846  0.75322104    -0.12940
C629        C  0.31019026  0.80356072  0.75786658     0.00710
C630        C  0.28811582  0.80743373  0.74015092    -0.11460
C631        C  0.29070270  0.82360796  0.71652274     0.03210
C632        C  0.31500697  0.83799684  0.71214187    -0.10880
H633        H  0.35134285  0.81564568  0.76686423     0.08800
H634        H  0.26871277  0.79806648  0.74501074     0.06330
H635        H  0.31738136  0.85050023  0.69401437     0.06180
C636        C  0.32007474  0.77109189  0.82788828     0.03210
C637        C  0.32138466  0.78986255  0.80612334    -0.12940
C638        C  0.30759781  0.78474792  0.78152690     0.00710
C639        C  0.29145176  0.76121512  0.77934042    -0.11460
C640        C  0.28708581  0.74412965  0.80199440     0.03210
C641        C  0.30166630  0.74910482  0.82631608    -0.10880
H642        H  0.33346642  0.80828864  0.80811173     0.08800
H643        H  0.28234822  0.75604894  0.75976547     0.06330
H644        H  0.29896693  0.73578281  0.84382605     0.06180
C645        C  0.25413043  0.67430919  0.81097543     0.03210
C646        C  0.23359066  0.67564570  0.79123766    -0.12940
C647        C  0.22830974  0.70015272  0.77729156     0.00710
C648        C  0.24497781  0.72298605  0.78235940    -0.11460
C649        C  0.26789453  0.72081164  0.79944180     0.03210
C650        C  0.27227812  0.69631099  0.81374517    -0.10880
H651        H  0.22141514  0.65767026  0.78705259     0.08800
H652        H  0.24009894  0.74253434  0.77301745     0.06330
H653        H  0.28969289  0.69441051  0.82709682     0.06180
C654        C  0.24199124  0.85161041  0.66300742     0.03210
C655        C  0.22262324  0.83050083  0.66229313    -0.12940
C656        C  0.22668963  0.80623871  0.67707256     0.00710
C657        C  0.24976608  0.80382228  0.69365954    -0.11460
C658        C  0.26761250  0.82601843  0.69718624     0.03210
C659        C  0.26346383  0.85002248  0.68179711    -0.10880
H660        H  0.20471004  0.83259679  0.64962418     0.08800
H661        H  0.25407666  0.78437371  0.70349657     0.06330
H662        H  0.27719374  0.86721391  0.68395607     0.06180
N663        N  0.58962363  0.96320806  0.68703500    -0.27210
N664        N  0.56621684  0.96914066  0.69874361    -0.35060
C665        C  0.55132681  0.98383345  0.68117807     0.01130
C666        C  0.56656996  0.98937761  0.65750182     0.07160
C667        C  0.59101159  0.97560953  0.66223021    -0.05940
H668        H  0.53134353  0.99155725  0.68618531     0.07830
H669        H  0.60877633  0.97533473  0.64910335     0.09030
Cu670      Cu  0.55808515  0.96244881  0.74030069     0.44170
Cu671      Cu  0.61469985  0.93554840  0.70639146     0.41990
Cu672      Cu  0.58879396  0.90946539  0.77625244     0.43880
N673        N  0.55048978  0.95504647  0.78183697    -0.34590
N674        N  0.56038436  0.93385928  0.79522775    -0.28850
C675        C  0.54666993  0.93071541  0.81905557    -0.04950
C676        C  0.52584816  0.95018383  0.82012602     0.07270
C677        C  0.53093754  0.96651060  0.79706581     0.01070
H678        H  0.55021549  0.91406459  0.83326043     0.08720
H679        H  0.52070837  0.98494491  0.79084412     0.07800
N680        N  0.61468149  0.88976252  0.74947845    -0.36040
N681        N  0.62400358  0.89896405  0.72567427    -0.28220
C682        C  0.64118862  0.88039126  0.71516743    -0.03460
C683        C  0.64306768  0.85851800  0.73323340     0.05150
C684        C  0.62585710  0.86523949  0.75469233     0.03240
H685        H  0.65235490  0.88351957  0.69629632     0.08350
H686        H  0.62277299  0.85411235  0.77364712     0.07180
N687        N  0.44153415  0.93111338  0.79455914    -0.27210
N688        N  0.45047874  0.95303152  0.78164945    -0.35060
C689        C  0.46974803  0.96495006  0.79679699     0.01130
C690        C  0.47554297  0.94842432  0.81943657     0.07160
C691        C  0.45562642  0.92795562  0.81808029    -0.05940
H692        H  0.47884030  0.98421088  0.79114106     0.07830
H693        H  0.45248066  0.91116561  0.83222988     0.09030
Cu694      Cu  0.44161975  0.96170966  0.74108753     0.44170
Cu695      Cu  0.41284115  0.90695660  0.77583465     0.41990
Cu696      Cu  0.38263365  0.93800752  0.71004573     0.43880
N697        N  0.43248594  0.96881760  0.70027559    -0.34590
N698        N  0.40837157  0.96402709  0.68964526    -0.28850
C699        C  0.40705279  0.97531266  0.66441598    -0.04950
C700        C  0.43238160  0.98660299  0.65804763     0.07270
C701        C  0.44776453  0.98179835  0.68171230     0.01070
H702        H  0.38885329  0.97576304  0.65195309     0.08720
H703        H  0.46828922  0.98866643  0.68578844     0.07800
N704        N  0.37490946  0.90001013  0.72681343    -0.36040
N705        N  0.38584803  0.88898158  0.74904369    -0.28220
C706        C  0.37538465  0.86385563  0.75274164    -0.03460
C707        C  0.35694001  0.85868973  0.73190412     0.05150
C708        C  0.35740035  0.88207163  0.71577907     0.03240
H709        H  0.37980349  0.85123134  0.77042763     0.08350
H710        H  0.34489211  0.88668489  0.69813575     0.07180
C711        C  0.50022328  0.95175233  0.83890225    -0.02400
N712        N  0.58324127  0.06248357  0.68817643    -0.27210
N713        N  0.55839409  0.05786299  0.69704227    -0.35060
C714        C  0.54468236  0.04420873  0.67735381     0.01130
C715        C  0.56233513  0.03786171  0.65550807     0.07160
C716        C  0.58680932  0.04994255  0.66387180    -0.05940
H717        H  0.52433963  0.03626857  0.68022239     0.07830
H718        H  0.60643982  0.04815558  0.65397640     0.09030
Cu719      Cu  0.54954699  0.06319564  0.73895092     0.44170
Cu720      Cu  0.60880477  0.08826417  0.70949559     0.41990
Cu721      Cu  0.57701881  0.12197294  0.77105256     0.43880
N722        N  0.54607006  0.07140615  0.78124915    -0.34590
N723        N  0.55256622  0.09528602  0.79208748    -0.28850
C724        C  0.54058968  0.09792641  0.81684845    -0.04950
C725        C  0.52509930  0.07446090  0.82208437     0.07270
C726        C  0.53146759  0.05739327  0.79974138     0.01070
H727        H  0.54228959  0.11625019  0.82921121     0.08720
H728        H  0.52414841  0.03684144  0.79606330     0.07800
N729        N  0.60677494  0.13846291  0.74659010    -0.36040
N730        N  0.61883139  0.12614242  0.72565730    -0.28220
C731        C  0.63814829  0.14280491  0.71565130    -0.03460
C732        C  0.63840997  0.16674861  0.73109387     0.05150
C733        C  0.61823109  0.16311523  0.75058051     0.03240
H734        H  0.65150609  0.13722118  0.69890798     0.08350
H735        H  0.61282093  0.17667482  0.76729745     0.07180
N736        N  0.41531572  0.06106821  0.68534211    -0.27210
N737        N  0.44005324  0.05664266  0.69472053    -0.35060
C738        C  0.45389999  0.04204596  0.67581857     0.01130
C739        C  0.43660315  0.03478539  0.65397907     0.07160
C740        C  0.41215470  0.04761654  0.66130114    -0.05940
H741        H  0.47403503  0.03395060  0.67944853     0.07830
H742        H  0.39275519  0.04533455  0.65105858     0.09030
Cu743      Cu  0.44957123  0.06288439  0.73659474     0.44170
Cu744      Cu  0.38799683  0.08495510  0.70760123     0.41990
Cu745      Cu  0.41509010  0.11434438  0.77395336     0.43880
N746        N  0.45512890  0.07040184  0.77901590    -0.34590
N747        N  0.44510006  0.09189132  0.79189864    -0.28850
C748        C  0.45675214  0.09440684  0.81686028    -0.04950
C749        C  0.47585261  0.07353448  0.82005869     0.07270
C750        C  0.47223462  0.05770154  0.79615109     0.01070
H751        H  0.45209802  0.11082791  0.83103802     0.08720
H752        H  0.48200175  0.03867713  0.79081908     0.07800
N753        N  0.38000356  0.12560792  0.75463090    -0.36040
N754        N  0.36985758  0.11526239  0.73167919    -0.28220
C755        C  0.34724657  0.12933743  0.72527061    -0.03460
C756        C  0.34298476  0.14934449  0.74521285     0.05150
C757        C  0.36419023  0.14612559  0.76347979     0.03240
H758        H  0.33579795  0.12608771  0.70660096     0.08350
H759        H  0.36888514  0.15851547  0.78128947     0.07180
C760        C  0.49977898  0.07065402  0.84099722    -0.02400
C761        C  0.43960929  0.00817235  0.63621011    -0.02400
C762        C  0.55965183  0.01231605  0.63653505    -0.02400
C763        C  0.83826523  0.68534670  0.74446347     0.03210
C764        C  0.83649772  0.70400992  0.72262876    -0.12940
C765        C  0.81281892  0.71959457  0.71859820     0.00710
C766        C  0.79113511  0.71650590  0.73702814    -0.11460
C767        C  0.79366615  0.70011385  0.76054026     0.03210
C768        C  0.81761530  0.68496688  0.76430663    -0.10880
H769        H  0.85325943  0.70592240  0.70841981     0.08800
H770        H  0.77195809  0.72650304  0.73270081     0.06330
H771        H  0.82004026  0.67245193  0.78242560     0.06180
C772        C  0.82142350  0.75091810  0.64771872     0.03210
C773        C  0.82310691  0.73258096  0.66982426    -0.12940
C774        C  0.81005293  0.73832066  0.69472614     0.00710
C775        C  0.79436509  0.76225878  0.69682473    -0.11460
C776        C  0.78973753  0.77898323  0.67383567     0.03210
C777        C  0.80336119  0.77305647  0.64926016    -0.10880
H778        H  0.83490183  0.71400695  0.66777195     0.08800
H779        H  0.78576504  0.76795088  0.71648992     0.06330
H780        H  0.80020293  0.78583427  0.63145249     0.06180
C781        C  0.74444954  0.67263487  0.81410810     0.03210
C782        C  0.72558956  0.69408761  0.81527884    -0.12940
C783        C  0.73003501  0.71840430  0.80064177     0.00710
C784        C  0.75334377  0.72062404  0.78417935    -0.11460
C785        C  0.77076301  0.69814874  0.78031979     0.03210
C786        C  0.76608569  0.67407619  0.79545664    -0.10880
H787        H  0.70762225  0.69184395  0.82791542     0.08800
H788        H  0.75807834  0.74005436  0.77449349     0.06330
H789        H  0.77951986  0.65668430  0.79323206     0.06180
C790        C  0.67770366  0.76839414  0.82868217     0.03210
C791        C  0.69611096  0.74654956  0.82702825    -0.12940
C792        C  0.71083896  0.74173463  0.80281446     0.00710
C793        C  0.70696073  0.75920148  0.78031252    -0.11460
C794        C  0.69090397  0.78284626  0.78257976     0.03210
C795        C  0.67663210  0.78746269  0.80710861    -0.10880
H796        H  0.69877407  0.73320415  0.84451084     0.08800
H797        H  0.71636420  0.75420248  0.76084188     0.06330
H798        H  0.66444915  0.80574621  0.80929096     0.06180
C799        C  0.66394132  0.83679633  0.73325539     0.03210
C800        C  0.68458587  0.83701468  0.71348368    -0.12940
C801        C  0.70845231  0.82186070  0.71738988     0.00710
C802        C  0.71080348  0.80546173  0.74094778    -0.11460
C803        C  0.68882565  0.80219358  0.75909230     0.03210
C804        C  0.66528474  0.81789725  0.75487278    -0.10880
H805        H  0.68235086  0.84955097  0.69538609     0.08800
H806        H  0.72993998  0.79543592  0.74535346     0.06330
H807        H  0.64814439  0.81580376  0.76859694     0.06180
C808        C  0.75593889  0.84809484  0.66153711     0.03210
C809        C  0.77453406  0.82634134  0.65996416    -0.12940
C810        C  0.77078376  0.80255408  0.67581005     0.00710
C811        C  0.74821108  0.80091145  0.69330229    -0.11460
C812        C  0.73112269  0.82352671  0.69730676     0.03210
C813        C  0.73546971  0.84727729  0.68157638    -0.10880
H814        H  0.79175199  0.82786306  0.64626556     0.08800
H815        H  0.74373889  0.78174660  0.70361655     0.06330
H816        H  0.72269567  0.86501629  0.68465295     0.06180
N817        N  0.20000748  0.55702968  0.89658146    -0.27210
N818        N  0.21348445  0.54829644  0.91828171    -0.35060
C819        C  0.19627143  0.53399054  0.93403040     0.01130
C820        C  0.17093440  0.53176419  0.92089968     0.07160
C821        C  0.17429398  0.54706870  0.89706855    -0.05940
H822        H  0.20228130  0.52453899  0.95313100     0.07830
H823        H  0.15957460  0.55006039  0.88085902     0.09030
Cu824      Cu  0.25585283  0.55255421  0.92406547     0.44170
Cu825      Cu  0.21806125  0.58419424  0.87017422     0.41990
Cu826      Cu  0.28018101  0.61492615  0.90362959     0.43880
N827        N  0.29650092  0.56418741  0.93141249    -0.34590
N828        N  0.30374008  0.58976274  0.92697032    -0.28850
C829        C  0.32587701  0.59582908  0.94182700    -0.04950
C830        C  0.33410999  0.57266367  0.95663325     0.07270
C831        C  0.31498814  0.55266666  0.94820843     0.01070
H832        H  0.33312426  0.61664282  0.94470907     0.08720
H833        H  0.31154980  0.53283514  0.95725618     0.07800
N834        N  0.26215343  0.62770983  0.86820719    -0.36040
N835        N  0.24105935  0.61633700  0.85575517    -0.28220
C836        C  0.23590219  0.63022831  0.83267489    -0.03460
C837        C  0.25481444  0.65123028  0.83035781     0.05150
C838        C  0.27112695  0.64891117  0.85330104     0.03240
H839        H  0.21878199  0.62586536  0.81944914     0.08350
H840        H  0.28780219  0.66203485  0.85949387     0.07180
N841        N  0.19712735  0.45663500  0.90890943    -0.27210
N842        N  0.20316715  0.45838537  0.93514949    -0.35060
C843        C  0.18439509  0.47446879  0.94739416     0.01130
C844        C  0.16576744  0.48413053  0.92765126     0.07160
C845        C  0.17534665  0.47225019  0.90341261    -0.05940
H846        H  0.18620817  0.48160109  0.96836368     0.07830
H847        H  0.16825827  0.47647020  0.88281553     0.09030
Cu848      Cu  0.24156529  0.44489573  0.94891310     0.44170
Cu849      Cu  0.22003709  0.43341847  0.88266410     0.41990
Cu850      Cu  0.28735655  0.40570542  0.90512532     0.43880
N851        N  0.28365097  0.43888504  0.95529448    -0.34590
N852        N  0.30075820  0.42505067  0.93977693    -0.28850
C853        C  0.32594799  0.42608175  0.95090283    -0.04950
C854        C  0.32558402  0.44311114  0.97402595     0.07270
C855        C  0.29757181  0.44921276  0.97631628     0.01070
H856        H  0.34271041  0.41419761  0.94307598     0.08720
H857        H  0.28687593  0.45851444  0.99325891     0.07800
N858        N  0.26207789  0.38861461  0.87646858    -0.36040
N859        N  0.23841284  0.39854002  0.86831342    -0.28220
C860        C  0.22722230  0.38114581  0.85023487    -0.03460
C861        C  0.24472234  0.35920930  0.84681445     0.05150
C862        C  0.26664478  0.36473275  0.86373163     0.03240
H863        H  0.20790969  0.38464078  0.84021264     0.08350
H864        H  0.28511085  0.35291051  0.86610466     0.07180
C865        C  0.14858125  0.51111250  0.92910209    -0.02400
N866        N  0.20161768  0.56525906  0.07552986    -0.27210
N867        N  0.20762821  0.56616219  0.04916504    -0.35060
C868        C  0.18887424  0.55126540  0.03567644     0.01130
C869        C  0.16951738  0.54053993  0.05424433     0.07160
C870        C  0.17918876  0.54972694  0.07949196    -0.05940
H871        H  0.19075753  0.54638313  0.01409322     0.07830
H872        H  0.17140821  0.54400645  0.09947644     0.09030
Cu873      Cu  0.24419548  0.58361786  0.03356964     0.44170
Cu874      Cu  0.22596111  0.58401976  0.10409485     0.41990
Cu875      Cu  0.29314000  0.61089343  0.08040335     0.43880
N876        N  0.28459087  0.59489576  0.02266079    -0.34590
N877        N  0.30308566  0.60357908  0.04021602    -0.28850
C878        C  0.32814580  0.60137776  0.02901346    -0.04950
C879        C  0.32607328  0.58953273  0.00299847     0.07270
C880        C  0.29751575  0.58712587  0.99971655     0.01070
H881        H  0.34638103  0.60613643  0.04021658     0.08720
H882        H  0.28671486  0.57652492  0.98370367     0.07800
N883        N  0.27362154  0.62147056  0.11607735    -0.36040
N884        N  0.24969011  0.61219815  0.12435619    -0.28220
C885        C  0.24067278  0.62805995  0.14490813    -0.03460
C886        C  0.25975359  0.64842078  0.14977182     0.05150
C887        C  0.28050513  0.64334720  0.13122542     0.03240
H888        H  0.22041091  0.62650433  0.15347951     0.08350
H889        H  0.29815725  0.65592887  0.12700205     0.07180
N890        N  0.19789612  0.46022636  0.07368396    -0.27210
N891        N  0.21242390  0.47085891  0.05368477    -0.35060
C892        C  0.19670272  0.48907876  0.04026800     0.01130
C893        C  0.17145254  0.49176359  0.05380768     0.07160
C894        C  0.17354999  0.47278837  0.07518806    -0.05940
H895        H  0.20386288  0.50096054  0.02299686     0.07830
H896        H  0.15927798  0.46888734  0.09156971     0.09030
Cu897      Cu  0.25451440  0.46167005  0.05105966     0.44170
Cu898      Cu  0.21229151  0.42628642  0.09370313     0.41990
Cu899      Cu  0.27074134  0.39138243  0.05628088     0.43880
N900        N  0.29463259  0.44603001  0.04802194    -0.34590
N901        N  0.29865214  0.41989141  0.04261232    -0.28850
C902        C  0.32170093  0.41718366  0.02782913    -0.04950
C903        C  0.33302063  0.44322132  0.02305176     0.07270
C904        C  0.31648191  0.46014534  0.03938914     0.01070
H905        H  0.32765782  0.39825865  0.01782442     0.08720
H906        H  0.31811083  0.48185500  0.04244778     0.07800
N907        N  0.24724168  0.37488138  0.08742852    -0.36040
N908        N  0.22760822  0.38768799  0.10095848    -0.28220
C909        C  0.22043876  0.37266640  0.12275881    -0.03460
C910        C  0.23650883  0.34938081  0.12349056     0.05150
C911        C  0.25320296  0.35145533  0.10063560     0.03240
H912        H  0.20619166  0.37969263  0.13816540     0.08350
H913        H  0.27005587  0.33829288  0.09513634     0.07180
C914        C  0.15047331  0.51534516  0.04935563    -0.02400
C915        C  0.34812577  0.45100143  0.99558455    -0.02400
C916        C  0.34828512  0.57448373  0.98528253    -0.02400
C917        C  0.32361245  0.17251161  0.74435140     0.03210
C918        C  0.30518529  0.17476718  0.72259293    -0.12940
C919        C  0.29044088  0.19903116  0.71862807     0.00710
C920        C  0.29399331  0.22088232  0.73687158    -0.11460
C921        C  0.30998285  0.21798279  0.76043176     0.03210
C922        C  0.32477361  0.19360410  0.76407849    -0.10880
H923        H  0.30250394  0.15778430  0.70855418     0.08800
H924        H  0.28430641  0.24036429  0.73253522     0.06330
H925        H  0.33728408  0.19118433  0.78210790     0.06180
C926        C  0.24334501  0.33762033  0.82582647     0.03210
C927        C  0.26280462  0.31673253  0.82568037    -0.12940
C928        C  0.26725468  0.30105669  0.80202362     0.00710
C929        C  0.25052404  0.30528717  0.77917748    -0.11460
C930        C  0.22855893  0.32363891  0.78043906     0.03210
C931        C  0.22510316  0.33980250  0.80393982    -0.10880
H932        H  0.27512220  0.31339192  0.84373195     0.08800
H933        H  0.25492173  0.29469962  0.76013082     0.06330
H934        H  0.20876297  0.35457911  0.80486068     0.06180
C935        C  0.33565741  0.26781122  0.81474532     0.03210
C936        C  0.33478433  0.24590002  0.79602584    -0.12940
C937        C  0.31124875  0.24082613  0.78056915     0.00710
C938        C  0.28859523  0.25796995  0.78424333    -0.11460
C939        C  0.29031089  0.28159458  0.80054209     0.03210
C940        C  0.31422252  0.28660445  0.81532231    -0.10880
H941        H  0.35233177  0.23279330  0.79359558     0.08800
H942        H  0.26952388  0.25294754  0.77432107     0.06330
H943        H  0.31599031  0.30492676  0.82767863     0.06180
C944        C  0.17995719  0.35311813  0.72760597     0.03210
C945        C  0.19764572  0.35132464  0.75008141    -0.12940
C946        C  0.20994756  0.32621340  0.75680509     0.00710
C947        C  0.20435345  0.30305737  0.74078949    -0.11460
C948        C  0.18922886  0.30525218  0.71666625     0.03210
C949        C  0.17725112  0.33041828  0.71002762    -0.10880
H950        H  0.20164634  0.36937624  0.76235333     0.08800
H951        H  0.21203293  0.28315704  0.74698616     0.06330
H952        H  0.16563547  0.33209332  0.69131231     0.06180
C953        C  0.16156571  0.25466525  0.66450450     0.03210
C954        C  0.16293533  0.27654475  0.68319448    -0.12940
C955        C  0.18665528  0.28123959  0.69836046     0.00710
C956        C  0.20875059  0.26347553  0.69515591    -0.11460
C957        C  0.20671029  0.24008500  0.67864377     0.03210
C958        C  0.18278994  0.23551630  0.66370619    -0.10880
H959        H  0.14588877  0.29034694  0.68549919     0.08800
H960        H  0.22789898  0.26827587  0.70507813     0.06330
H961        H  0.18111700  0.21753712  0.65081335     0.06180
C962        C  0.25835728  0.19101096  0.64858385     0.03210
C963        C  0.27705398  0.18938891  0.67015848    -0.12940
C964        C  0.27152752  0.20197411  0.69533095     0.00710
C965        C  0.24753940  0.21715315  0.69836341    -0.11460
C966        C  0.23031233  0.22158872  0.67593203     0.03210
C967        C  0.23598541  0.20855846  0.65097088    -0.10880
H968        H  0.29565683  0.17786206  0.66758921     0.08800
H969        H  0.24224057  0.22555161  0.71826208     0.06330
H970        H  0.22273905  0.21172139  0.63359553     0.06180
N971        N  0.58841555  0.31026710  0.93784920    -0.27210
N972        N  0.56302932  0.30204826  0.94010102    -0.35060
C973        C  0.54825483  0.32256277  0.95110006     0.01130
C974        C  0.56544873  0.34460809  0.95795221     0.07160
C975        C  0.59094714  0.33530964  0.94919706    -0.05940
H976        H  0.52729463  0.32012026  0.95745529     0.07830
H977        H  0.61035725  0.34512708  0.95298338     0.09030
Cu978      Cu  0.55384077  0.26023913  0.93638511     0.44170
Cu979      Cu  0.61686230  0.28566851  0.91873504     0.41990
Cu980      Cu  0.58869534  0.22032667  0.88729924     0.43880
N981        N  0.54817671  0.21799602  0.93071517    -0.34590
N982        N  0.55785443  0.20406220  0.90974607    -0.28850
C983        C  0.54404221  0.18025568  0.90703884    -0.04950
C984        C  0.52351365  0.17969046  0.92674381     0.07270
C985        C  0.52916299  0.20276411  0.94290051     0.01070
H986        H  0.54755736  0.16558338  0.89074892     0.08720
H987        H  0.51970794  0.20901314  0.96173122     0.07800
N988        N  0.62314322  0.24059040  0.87587151    -0.36040
N989        N  0.63371966  0.26291246  0.88715100    -0.28220
C990        C  0.65498494  0.27103349  0.87192125    -0.03460
C991        C  0.65789127  0.25290724  0.85012114     0.05150
C992        C  0.63738170  0.23383041  0.85351470     0.03240
H993        H  0.66598803  0.28995720  0.87547128     0.08350
H994        H  0.63180027  0.21713309  0.83999665     0.07180
N995        N  0.41448903  0.31817043  0.93891069    -0.27210
N996        N  0.43852931  0.30750804  0.94420657    -0.35060
C997        C  0.45251653  0.32536874  0.95976355     0.01130
C998        C  0.43587087  0.34772677  0.96691921     0.07160
C999        C  0.41170364  0.34204831  0.95287333    -0.05940
H1000       H  0.47247342  0.32093061  0.96790703     0.07830
H1001       H  0.39293140  0.35357583  0.95394005     0.09030
Cu1002     Cu  0.44720203  0.26557350  0.93727758     0.44170
Cu1003     Cu  0.38938839  0.29866211  0.91087693     0.41990
Cu1004     Cu  0.41583780  0.23037937  0.88349424     0.43880
N1005       N  0.45235565  0.22307647  0.92997393    -0.34590
N1006       N  0.44262768  0.21044960  0.90820883    -0.28850
C1007       C  0.45422099  0.18547088  0.90567149    -0.04950
C1008       C  0.47353760  0.18241008  0.92633193     0.07270
C1009       C  0.46935325  0.20582096  0.94266981     0.01070
H1010       H  0.45011147  0.17150172  0.88892209     0.08720
H1011       H  0.47825447  0.21061967  0.96221695     0.07800
N1012       N  0.38836272  0.25568456  0.86507622    -0.36040
N1013       N  0.37834064  0.27902014  0.87467789    -0.28220
C1014       C  0.35942441  0.28810709  0.85707601    -0.03460
C1015       C  0.35735194  0.26950336  0.83553674     0.05150
C1016       C  0.37612167  0.24931387  0.84141394     0.03240
H1017       H  0.34734093  0.30630799  0.86061839     0.08350
H1018       H  0.37964319  0.23033349  0.83043030     0.07180
C1019       C  0.49751788  0.16163885  0.92872921    -0.02400
N1020       N  0.58865456  0.31319925  0.03373853    -0.27210
N1021       N  0.56498935  0.30204518  0.02754101    -0.35060
C1022       C  0.55081887  0.31981274  0.01213883     0.01130
C1023       C  0.56671426  0.34308422  0.00645866     0.07160
C1024       C  0.59081300  0.33778432  0.02086502    -0.05940
H1025       H  0.53102661  0.31509763  0.00369083     0.07830
H1026       H  0.60911898  0.35014689  0.02081632     0.09030
Cu1027     Cu  0.55596160  0.26045051  0.03463771     0.44170
Cu1028     Cu  0.61484763  0.29239639  0.06029973     0.41990
Cu1029     Cu  0.58928613  0.22298643  0.08610278     0.43880
N1030       N  0.54797648  0.21893558  0.04327007    -0.34590
N1031       N  0.55818116  0.20573653  0.06442508    -0.28850
C1032       C  0.54468464  0.18185229  0.06804893    -0.04950
C1033       C  0.52392991  0.18017704  0.04863529     0.07270
C1034       C  0.52865214  0.20321067  0.03204600     0.01070
H1035       H  0.54892911  0.16750839  0.08441566     0.08720
H1036       H  0.51879904  0.20874858  0.01320647     0.07800
N1037       N  0.62195107  0.24448691  0.10070763    -0.36040
N1038       N  0.63130755  0.26844341  0.09187457    -0.28220
C1039       C  0.65200110  0.27605346  0.10820369    -0.03460
C1040       C  0.65583154  0.25593480  0.12808761     0.05150
C1041       C  0.63637477  0.23628800  0.12252588     0.03240
H1042       H  0.66241059  0.29556834  0.10647854     0.08350
H1043       H  0.63208381  0.21774495  0.13394797     0.07180
N1044       N  0.41123662  0.31131410  0.03716980    -0.27210
N1045       N  0.43570399  0.30142963  0.03266608    -0.35060
C1046       C  0.45070492  0.32083584  0.02026350     0.01130
C1047       C  0.43461898  0.34412412  0.01526213     0.07160
C1048       C  0.40930011  0.33648049  0.02590592    -0.05940
H1049       H  0.47133988  0.31742740  0.01338339     0.07830
H1050       H  0.39058563  0.34811213  0.02495739     0.09030
Cu1051     Cu  0.44409357  0.25979797  0.03844302     0.44170
Cu1052     Cu  0.38540676  0.29039164  0.06297052     0.41990
Cu1053     Cu  0.41328361  0.22375964  0.09260633     0.43880
N1054       N  0.44983317  0.21789583  0.04560817    -0.34590
N1055       N  0.44073275  0.20483074  0.06738960    -0.28850
C1056       C  0.45404753  0.18074989  0.07002605    -0.04950
C1057       C  0.47375766  0.17913249  0.04947633     0.07270
C1058       C  0.46815330  0.20202083  0.03312366     0.01070
H1059       H  0.45100650  0.16673019  0.08694065     0.08720
H1060       H  0.47720341  0.20764499  0.01387521     0.07800
N1061       N  0.38667343  0.25032635  0.11115026    -0.36040
N1062       N  0.37639036  0.27309588  0.10059769    -0.28220
C1063       C  0.35893981  0.28402134  0.11867644    -0.03460
C1064       C  0.35790140  0.26722104  0.14161462     0.05150
C1065       C  0.37587418  0.24611358  0.13602889     0.03240
H1066       H  0.34709098  0.30224689  0.11456657     0.08350
H1067       H  0.37977138  0.22798991  0.14821396     0.07180
C1068       C  0.49918417  0.16031999  0.04684034    -0.02400
C1069       C  0.44029667  0.36596751  0.99293881    -0.02400
C1070       C  0.56096157  0.36394416  0.98263307    -0.02400
N1071       N  0.94269908  0.59114719  0.68163722    -0.27210
N1072       N  0.94658113  0.56546811  0.68907718    -0.35060
C1073       C  0.96098320  0.55278303  0.66922625     0.01130
C1074       C  0.96966128  0.57215759  0.64998388     0.07160
C1075       C  0.95652539  0.59611692  0.65837916    -0.05940
H1076       H  0.96966717  0.53269616  0.67165615     0.07830
H1077       H  0.95954559  0.61651594  0.65011452     0.09030
Cu1078     Cu  0.94377347  0.55493742  0.73093610     0.44170
Cu1079     Cu  0.92147848  0.61822497  0.70601955     0.41990
Cu1080     Cu  0.88806338  0.58500463  0.76565558     0.43880
N1081       N  0.93709708  0.55090199  0.77350550    -0.34590
N1082       N  0.91330088  0.55701749  0.78424726    -0.28850
C1083       C  0.91122507  0.54569235  0.80931072    -0.04950
C1084       C  0.93583837  0.53309659  0.81619657     0.07270
C1085       C  0.95183912  0.53767655  0.79264474     0.01070
H1086       H  0.89252484  0.54566726  0.82101253     0.08720
H1087       H  0.97189785  0.52950250  0.78871546     0.07800
N1088       N  0.87937798  0.62370620  0.75087021    -0.36040
N1089       N  0.89211637  0.63606113  0.73038990    -0.28220
C1090       C  0.88073680  0.66072231  0.72613591    -0.03460
C1091       C  0.85982742  0.66421394  0.74493385     0.05150
C1092       C  0.85975672  0.64028610  0.76035392     0.03240
H1093       H  0.88640030  0.67420608  0.70945144     0.08350
H1094       H  0.84556068  0.63442497  0.77628819     0.07180
N1095       N  0.91050190  0.46346623  0.78594602    -0.27210
N1096       N  0.93528980  0.46657276  0.77614745    -0.35060
C1097       C  0.95086360  0.47756527  0.79600755     0.01130
C1098       C  0.93464929  0.48450526  0.81881337     0.07160
C1099       C  0.90904125  0.47464453  0.81127398    -0.05940
H1100       H  0.97166816  0.48394539  0.79258506     0.07830
H1101       H  0.89024423  0.47739060  0.82252814     0.09030
Cu1102     Cu  0.94318583  0.46435235  0.73340671     0.44170
Cu1103     Cu  0.88183689  0.44249306  0.76322369     0.41990
Cu1104     Cu  0.91199163  0.41070115  0.69912218     0.43880
N1105       N  0.94753580  0.45788323  0.69059565    -0.34590
N1106       N  0.93963356  0.43467588  0.67937342    -0.28850
C1107       C  0.95300391  0.43056378  0.65561094    -0.04950
C1108       C  0.97087572  0.45242531  0.65119388     0.07270
C1109       C  0.96448934  0.47029870  0.67291031     0.01070
H1110       H  0.95074299  0.41207019  0.64360973     0.08720
H1111       H  0.97517273  0.48894705  0.67781329     0.07800
N1112       N  0.87782584  0.39817764  0.71930421    -0.36040
N1113       N  0.86648127  0.40968773  0.74109681    -0.28220
C1114       C  0.84548125  0.39405772  0.74914200    -0.03460
C1115       C  0.84349898  0.37174390  0.73150396     0.05150
C1116       C  0.86430324  0.37525217  0.71278761     0.03240
H1117       H  0.83395398  0.39785693  0.76766995     0.08350
H1118       H  0.87052294  0.36147587  0.69653711     0.07180
C1119       C  0.94030934  0.50966850  0.83754624    -0.02400
N1120       N  0.05501426  0.58946415  0.68409332    -0.27210
N1121       N  0.03948328  0.57449794  0.70022255    -0.35060
C1122       C  0.01770797  0.56647533  0.68588754     0.01130
C1123       C  0.01816240  0.57785570  0.65923109     0.07160
C1124       C  0.04354306  0.59107987  0.65892500    -0.05940
H1125       H  0.00331665  0.55251758  0.69481080     0.07830
H1126       H  0.05316960  0.60109603  0.64163807     0.09030
Cu1127     Cu  0.04817743  0.56467834  0.74145872     0.44170
Cu1128     Cu  0.08895729  0.60830838  0.70001244     0.41990
Cu1129     Cu  0.10658716  0.59028083  0.77405211     0.43880
N1130       N  0.06013602  0.55251445  0.78119605    -0.34590
N1131       N  0.08309955  0.56030148  0.79286348    -0.28850
C1132       C  0.08681234  0.54597143  0.81641447    -0.04950
C1133       C  0.06467757  0.52835604  0.82022814     0.07270
C1134       C  0.04824106  0.53366764  0.79730419     0.01070
H1135       H  0.10486286  0.54738478  0.82903001     0.08720
H1136       H  0.02950102  0.52328833  0.79197551     0.07800
N1137       N  0.12005600  0.62406650  0.75181124    -0.36040
N1138       N  0.11394096  0.63016217  0.72604745    -0.28220
C1139       C  0.12639897  0.65366623  0.71906406    -0.03460
C1140       C  0.14118220  0.66294622  0.74134815     0.05150
C1141       C  0.13662607  0.64361722  0.76175134     0.03240
H1142       H  0.12557448  0.66258177  0.69874703     0.08350
H1143       H  0.14514428  0.64319993  0.78220652     0.07180
N1144       N  0.08636773  0.45848693  0.78593522    -0.27210
N1145       N  0.06014480  0.45738062  0.78062717    -0.35060
C1146       C  0.04641482  0.47008705  0.80087630     0.01130
C1147       C  0.06493336  0.48017766  0.82019993     0.07160
C1148       C  0.09018747  0.47303761  0.80904361    -0.05940
H1149       H  0.02487111  0.47450666  0.79991701     0.07830
H1150       H  0.10996890  0.47922056  0.81662375     0.09030
Cu1151     Cu  0.04679271  0.44565653  0.74212562     0.44170
Cu1152     Cu  0.11447377  0.43983391  0.76026566     0.41990
Cu1153     Cu  0.08773144  0.40650715  0.69584460     0.43880
N1154       N  0.03885675  0.43990412  0.70076345    -0.34590
N1155       N  0.05158214  0.42300562  0.68407616    -0.28850
C1156       C  0.03997674  0.42412131  0.65903568    -0.04950
C1157       C  0.01904390  0.44346006  0.65968119     0.07270
C1158       C  0.02010322  0.45349199  0.68661802     0.01070
H1159       H  0.04739696  0.41307012  0.64126694     0.08720
H1160       H  0.00918718  0.47010091  0.69593714     0.07800
N1161       N  0.12495887  0.40003561  0.71326416    -0.36040
N1162       N  0.13468242  0.41139699  0.73590983    -0.28220
C1163       C  0.15750476  0.39806693  0.74307409    -0.03460
C1164       C  0.16226794  0.37733717  0.72405706     0.05150
C1165       C  0.14131823  0.37964634  0.70530066     0.03240
H1166       H  0.16807660  0.40152835  0.76223287     0.08350
H1167       H  0.13641927  0.36594933  0.68854262     0.07180
C1168       C  0.06027041  0.50384973  0.84039141    -0.02400
C1169       C  0.99917437  0.45220834  0.63662470    -0.02400
C1170       C  0.99734645  0.57180444  0.63518777    -0.02400
C1171       C  0.75489099  0.17355287  0.66419139     0.03210
C1172       C  0.77470364  0.19405305  0.66463934    -0.12940
C1173       C  0.76999300  0.21895532  0.67819238     0.00710
C1174       C  0.74546210  0.22254468  0.69228666    -0.11460
C1175       C  0.72729697  0.20054027  0.69569832     0.03210
C1176       C  0.73213362  0.17596538  0.68126508    -0.10880
H1177       H  0.79372015  0.19054381  0.65401900     0.08800
H1178       H  0.74058649  0.24245289  0.70080874     0.06330
H1179       H  0.71818736  0.15889862  0.68279082     0.06180
C1180       C  0.65922297  0.18860270  0.73050047     0.03210
C1181       C  0.68022520  0.18758801  0.71114408    -0.12940
C1182       C  0.70377357  0.20345843  0.71457662     0.00710
C1183       C  0.70542362  0.22126991  0.73721358    -0.11460
C1184       C  0.68317390  0.22510975  0.75476125     0.03210
C1185       C  0.65992136  0.20878443  0.75101886    -0.10880
H1186       H  0.67837999  0.17397143  0.69377166     0.08800
H1187       H  0.72436742  0.23167128  0.74173724     0.06330
H1188       H  0.64268466  0.21126121  0.76453397     0.06180
C1189       C  0.75196267  0.34305201  0.82290002     0.03210
C1190       C  0.72881304  0.32688178  0.81873261    -0.12940
C1191       C  0.72905570  0.30530346  0.79955012     0.00710
C1192       C  0.75166029  0.30251804  0.78212366    -0.11460
C1193       C  0.77440515  0.31972753  0.78494578     0.03210
C1194       C  0.77496873  0.33867591  0.80663181    -0.10880
H1195       H  0.71071933  0.33095344  0.83070320     0.08800
H1196       H  0.75160967  0.28695028  0.76636105     0.06330
H1197       H  0.79324108  0.35042528  0.81057951     0.06180
C1198       C  0.82691190  0.34681284  0.73527895     0.03210
C1199       C  0.80893546  0.34494756  0.75730079    -0.12940
C1200       C  0.79603237  0.32009546  0.76366445     0.00710
C1201       C  0.80167580  0.29686060  0.74752532    -0.11460
C1202       C  0.81655603  0.29933016  0.72293071     0.03210
C1203       C  0.82931415  0.32455953  0.71726241    -0.10880
H1204       H  0.80441791  0.36321314  0.76898752     0.08800
H1205       H  0.79356798  0.27718823  0.75367864     0.06330
H1206       H  0.84041907  0.32739677  0.69840050     0.06180
C1207       C  0.83177695  0.25974730  0.65746444     0.03210
C1208       C  0.80909104  0.24268344  0.65602478    -0.12940
C1209       C  0.79115267  0.24057852  0.67816352     0.00710
C1210       C  0.79429695  0.25840951  0.70057723    -0.11460
C1211       C  0.81604537  0.27719567  0.70168185     0.03210
C1212       C  0.83568207  0.27632007  0.68064637    -0.10880
H1213       H  0.80536298  0.23097394  0.63752347     0.08800
H1214       H  0.77954593  0.25771716  0.71692772     0.06330
H1215       H  0.85387558  0.28873091  0.68196455     0.06180
C1216       C  0.67499229  0.25646835  0.82555901     0.03210
C1217       C  0.69352485  0.27813588  0.82412765    -0.12940
C1218       C  0.70712827  0.28426204  0.79957113     0.00710
C1219       C  0.70153890  0.26826039  0.77619976    -0.11460
C1220       C  0.68530599  0.24455776  0.77815713     0.03210
C1221       C  0.67222135  0.23882550  0.80305056    -0.10880
H1222       H  0.69791811  0.28964567  0.84253759     0.08800
H1223       H  0.71031916  0.27374932  0.75659066     0.06330
H1224       H  0.66014456  0.22041973  0.80501626     0.06180
N1225       N  0.79809085  0.55973101  0.90113675    -0.27210
N1226       N  0.79094744  0.55815431  0.92707515    -0.35060
C1227       C  0.81220616  0.54856517  0.94159986     0.01130
C1228       C  0.83338122  0.54146104  0.92356134     0.07160
C1229       C  0.82285976  0.54873307  0.89793391    -0.05940
H1230       H  0.81086900  0.54313436  0.96305588     0.07830
H1231       H  0.83190998  0.54460970  0.87810140     0.09030
Cu1232     Cu  0.74959311  0.56019055  0.93685249     0.44170
Cu1233     Cu  0.77389994  0.57967653  0.87321514     0.41990
Cu1234     Cu  0.72520519  0.62233812  0.91394806     0.43880
N1235       N  0.70835132  0.57030222  0.93900359    -0.34590
N1236       N  0.70168969  0.59629310  0.93672987    -0.28850
C1237       C  0.67722753  0.60036729  0.94809380    -0.04950
C1238       C  0.66642502  0.57522382  0.95661634     0.07270
C1239       C  0.68696788  0.55650037  0.94945002     0.01070
H1240       H  0.66871080  0.62052818  0.95175811     0.08720
H1241       H  0.68798406  0.53523232  0.95564631     0.07800
N1242       N  0.73813193  0.63009464  0.87459813    -0.36040
N1243       N  0.75407495  0.61427318  0.85944518    -0.28220
C1244       C  0.75770472  0.62614097  0.83485988    -0.03460
C1245       C  0.74302332  0.65037844  0.83443050     0.05150
C1246       C  0.73081550  0.65208676  0.85994170     0.03240
H1247       H  0.77108122  0.61820529  0.81910375     0.08350
H1248       H  0.71860891  0.66874383  0.86798101     0.07180
N1249       N  0.80317418  0.46532676  0.90365221    -0.27210
N1250       N  0.79237913  0.47254209  0.92736307    -0.35060
C1251       C  0.81057632  0.48817162  0.94070092     0.01130
C1252       C  0.83335664  0.49322997  0.92384315     0.07160
C1253       C  0.82762295  0.47780677  0.90040959    -0.05940
H1254       H  0.80647696  0.49727298  0.96050343     0.07830
H1255       H  0.83963110  0.47678055  0.88181412     0.09030
Cu1256     Cu  0.75079845  0.46568391  0.93765782     0.44170
Cu1257     Cu  0.78335968  0.43685827  0.87965681     0.41990
Cu1258     Cu  0.72239351  0.40406470  0.91508157     0.43880
N1259       N  0.70975984  0.45456138  0.94613344    -0.34590
N1260       N  0.70092818  0.42950330  0.94115052    -0.28850
C1261       C  0.67703977  0.42540445  0.95420255    -0.04950
C1262       C  0.66901428  0.44967927  0.96722645     0.07270
C1263       C  0.69058897  0.46773178  0.96092924     0.01070
H1264       H  0.66697520  0.40565897  0.95534695     0.08720
H1265       H  0.69339708  0.48817452  0.96906557     0.07800
N1266       N  0.74228673  0.38977705  0.88048309    -0.36040
N1267       N  0.76296048  0.40176600  0.86773019    -0.28220
C1268       C  0.76956173  0.38693147  0.84553148    -0.03460
C1269       C  0.75218320  0.36465052  0.84404572     0.05150
C1270       C  0.73511392  0.36713884  0.86648313     0.03240
H1271       H  0.78572528  0.39232201  0.83142711     0.08350
H1272       H  0.71868765  0.35354425  0.87239210     0.07180
C1273       C  0.85357223  0.51781251  0.92784653    -0.02400
N1274       N  0.69639993  0.59781422  0.03575241    -0.27210
N1275       N  0.70917932  0.57581435  0.02669414    -0.35060
C1276       C  0.69264974  0.56274534  0.00919422     0.01130
C1277       C  0.66888794  0.57824666  0.00476277     0.07160
C1278       C  0.67213965  0.60036596  0.02272296    -0.05940
H1279       H  0.69813371  0.54356036  0.99958551     0.07830
H1280       H  0.65823497  0.61728111  0.02585401     0.09030
Cu1281     Cu  0.75051160  0.56658217  0.03525662     0.44170
Cu1282     Cu  0.71303063  0.61892303  0.06835302     0.41990
Cu1283     Cu  0.77463995  0.58309160  0.10016719     0.43880
N1284       N  0.79107113  0.55820564  0.04750410    -0.34590
N1285       N  0.79865502  0.56104712  0.07326819    -0.28850
C1286       C  0.82278863  0.54842328  0.07712587    -0.04950
C1287       C  0.83214947  0.53799612  0.05213340     0.07270
C1288       C  0.81112028  0.54516237  0.03388199     0.01070
H1289       H  0.83219489  0.54563383  0.09700414     0.08720
H1290       H  0.80921711  0.53851528  0.01280471     0.07800
N1291       N  0.75193485  0.61450274  0.11727252    -0.36040
N1292       N  0.73111374  0.62733426  0.10575601    -0.28220
C1293       C  0.72373026  0.64840693  0.12176614    -0.03460
C1294       C  0.74077241  0.64925460  0.14439709     0.05150
C1295       C  0.75837627  0.62735429  0.14080168     0.03240
H1296       H  0.70803506  0.66289588  0.11618168     0.08350
H1297       H  0.77568706  0.62194322  0.15335869     0.07180
N1298       N  0.80212665  0.46241856  0.07383227    -0.27210
N1299       N  0.79186390  0.46816801  0.04960410    -0.35060
C1300       C  0.80974941  0.48365060  0.03577574     0.01130
C1301       C  0.83214519  0.48942874  0.05261840     0.07160
C1302       C  0.82612347  0.47547893  0.07688144    -0.05940
H1303       H  0.80568340  0.49208800  0.01569113     0.07830
H1304       H  0.83750678  0.47587128  0.09586794     0.09030
Cu1305     Cu  0.75134876  0.45972874  0.04028548     0.44170
Cu1306     Cu  0.78191678  0.43526427  0.09865028     0.41990
Cu1307     Cu  0.72360010  0.39761851  0.06165042     0.43880
N1308       N  0.71071975  0.44910009  0.03418880    -0.34590
N1309       N  0.70144538  0.42404782  0.03800402    -0.28850
C1310       C  0.67666539  0.42159995  0.02637846    -0.04950
C1311       C  0.66905632  0.44701315  0.01573369     0.07270
C1312       C  0.69149825  0.46382353  0.02163916     0.01070
H1313       H  0.66558557  0.40245193  0.02464517     0.08720
H1314       H  0.69467783  0.48473006  0.01490844     0.07800
N1315       N  0.74317744  0.38620662  0.09705570    -0.36040
N1316       N  0.76250462  0.39975423  0.11040485    -0.28220
C1317       C  0.76882264  0.38596887  0.13327762    -0.03460
C1318       C  0.75255995  0.36291904  0.13448814     0.05150
C1319       C  0.73652304  0.36370143  0.11131750     0.03240
H1320       H  0.78405624  0.39249736  0.14793575     0.08350
H1321       H  0.72119430  0.34900368  0.10503881     0.07180
C1322       C  0.85211619  0.51352527  0.04812175    -0.02400
C1323       C  0.64907675  0.45263167  0.99220138    -0.02400
C1324       C  0.64753268  0.57239259  0.98149164    -0.02400
C1325       C  0.16082741  0.25384693  0.31202378     0.03210
C1326       C  0.16259605  0.27562002  0.29335492    -0.12940
C1327       C  0.18686408  0.28076498  0.27921796     0.00710
C1328       C  0.20929859  0.26366687  0.28387483    -0.11460
C1329       C  0.20690317  0.24004226  0.30015653     0.03210
C1330       C  0.18233868  0.23513253  0.31391821    -0.10880
H1331       H  0.14528219  0.28883979  0.29014195     0.08800
H1332       H  0.22874565  0.26887035  0.27479606     0.06330
H1333       H  0.17994458  0.21691138  0.32632415     0.06180
C1334       C  0.17569113  0.34936878  0.24388923     0.03210
C1335       C  0.17425893  0.32819574  0.26334900    -0.12940
C1336       C  0.18900106  0.30382136  0.25954958     0.00710
C1337       C  0.20540875  0.30109921  0.23621106    -0.11460
C1338       C  0.20885508  0.32303348  0.21801981     0.03210
C1339       C  0.19419421  0.34723414  0.22218529    -0.10880
H1340       H  0.16155805  0.33060126  0.28129655     0.08800
H1341       H  0.21530676  0.28168973  0.23194258     0.06330
H1342       H  0.19693868  0.36417761  0.20816466     0.06180
C1343       C  0.23985655  0.33107124  0.14735745     0.03210
C1344       C  0.22150145  0.33271742  0.16928897    -0.12940
C1345       C  0.22748103  0.32035501  0.19447046     0.00710
C1346       C  0.25160238  0.30556375  0.19731991    -0.11460
C1347       C  0.26855850  0.30093419  0.17473841     0.03210
C1348       C  0.26260488  0.31388856  0.14968540    -0.10880
H1349       H  0.20266965  0.34390378  0.16690357     0.08800
H1350       H  0.25716209  0.29756824  0.21728533     0.06330
H1351       H  0.27572151  0.31083842  0.13215761     0.06180
C1352       C  0.33717903  0.26760656  0.16348383     0.03210
C1353       C  0.31581330  0.28651330  0.16224863    -0.12940
C1354       C  0.29219042  0.28242983  0.17770238     0.00710
C1355       C  0.29066775  0.25976512  0.19538045    -0.11460
C1356       C  0.31311881  0.24255346  0.19934352     0.03210
C1357       C  0.33653941  0.24684532  0.18342477    -0.10880
H1358       H  0.31713565  0.30389694  0.14858194     0.08800
H1359       H  0.27167618  0.25511953  0.20566535     0.06330
H1360       H  0.35396737  0.23361116  0.18602552     0.06180
C1361       C  0.32296167  0.17269908  0.23253484     0.03210
C1362       C  0.32484906  0.19460191  0.21396362    -0.12940
C1363       C  0.31122559  0.21935844  0.21898799     0.00710
C1364       C  0.29526250  0.22175478  0.24273736    -0.11460
C1365       C  0.29086295  0.19909964  0.25995829     0.03210
C1366       C  0.30476958  0.17455954  0.25458885    -0.10880
H1367       H  0.33693234  0.19241821  0.19558392     0.08800
H1368       H  0.28611193  0.24133982  0.24778491     0.06330
H1369       H  0.30143873  0.15690573  0.26756928     0.06180
C1370       C  0.25545452  0.18622571  0.32812322     0.03210
C1371       C  0.27507820  0.18578512  0.30720212    -0.12940
C1372       C  0.27140616  0.20110090  0.28314477     0.00710
C1373       C  0.24824549  0.21760322  0.28070854    -0.11460
C1374       C  0.23014689  0.22083923  0.30271398     0.03210
C1375       C  0.23403185  0.20510319  0.32652613    -0.10880
H1376       H  0.29294265  0.17308104  0.30940497     0.08800
H1377       H  0.24403604  0.22762468  0.26135058     0.06330
H1378       H  0.22009831  0.20706743  0.34355251     0.06180
N1379       N  0.94784714  0.60655005  0.28472005    -0.27210
N1380       N  0.94016472  0.58089190  0.28213384    -0.35060
C1381       C  0.94705552  0.56764229  0.30523058     0.01130
C1382       C  0.96543805  0.58353032  0.32071080     0.07160
C1383       C  0.96286058  0.60919953  0.30766265    -0.05940
H1384       H  0.93982069  0.54721228  0.30933180     0.07830
H1385       H  0.97350107  0.62793781  0.31248333     0.09030
Cu1386     Cu  0.93878257  0.56376290  0.24205438     0.44170
Cu1387     Cu  0.93459998  0.63454330  0.25604846     0.41990
Cu1388     Cu  0.89375779  0.59545588  0.20195176     0.43880
N1389       N  0.93661646  0.55459460  0.19947312    -0.34590
N1390       N  0.91529992  0.56346905  0.18597690    -0.28850
C1391       C  0.91365474  0.55099255  0.16142812    -0.04950
C1392       C  0.93636824  0.53414072  0.15776917     0.07270
C1393       C  0.95075762  0.53784446  0.18261797     0.01070
H1394       H  0.89613459  0.55310353  0.14825836     0.08720
H1395       H  0.96899948  0.52724338  0.18888940     0.07800
N1396       N  0.88664573  0.63427836  0.21655637    -0.36040
N1397       N  0.90117508  0.64863910  0.23443158    -0.28220
C1398       C  0.88770019  0.67189317  0.24035903    -0.03460
C1399       C  0.86374475  0.67216792  0.22537816     0.05150
C1400       C  0.86401124  0.64808090  0.21041713     0.03240
H1401       H  0.89402116  0.68631892  0.25600714     0.08350
H1402       H  0.84794452  0.63978161  0.19769561     0.07180
N1403       N  0.91239095  0.46049803  0.18926043    -0.27210
N1404       N  0.93817825  0.46156004  0.19648047    -0.35060
C1405       C  0.95175419  0.47629620  0.17783201     0.01130
C1406       C  0.93398794  0.48542500  0.15719311     0.07160
C1407       C  0.90882229  0.47525847  0.16598826    -0.05940
H1408       H  0.97291982  0.48180577  0.18040211     0.07830
H1409       H  0.88922725  0.47934240  0.15674810     0.09030
Cu1410     Cu  0.95336893  0.44742142  0.23400477     0.44170
Cu1411     Cu  0.88562116  0.43828129  0.21333137     0.41990
Cu1412     Cu  0.91762040  0.40307526  0.27658520     0.43880
N1413       N  0.96636313  0.43695437  0.27353786    -0.34590
N1414       N  0.95419553  0.41886012  0.28940380    -0.28850
C1415       C  0.96598914  0.41887329  0.31449740    -0.04950
C1416       C  0.98577965  0.43948765  0.31523262     0.07270
C1417       C  0.98543755  0.44978965  0.28824652     0.01070
H1418       H  0.95904671  0.40626513  0.33131702     0.08720
H1419       H  0.99618462  0.46737855  0.28031345     0.07800
N1420       N  0.88050334  0.39506697  0.25870783    -0.36040
N1421       N  0.86922313  0.40713198  0.23716427    -0.28220
C1422       C  0.84704551  0.39279662  0.22984632    -0.03460
C1423       C  0.84425817  0.37062965  0.24746956     0.05150
C1424       C  0.86571925  0.37305348  0.26563688     0.03240
H1425       H  0.83545457  0.39699048  0.21146787     0.08350
H1426       H  0.87192948  0.35859770  0.28124624     0.07180
C1427       C  0.93989863  0.50975496  0.13726411    -0.02400
N1428       N  0.05118921  0.58953275  0.28910223    -0.27210
N1429       N  0.03403511  0.57808738  0.27165581    -0.35060
C1430       C  0.01191415  0.57010880  0.28560265     0.01130
C1431       C  0.01458041  0.57734554  0.31331168     0.07160
C1432       C  0.04031804  0.58929450  0.31451709    -0.05940
H1433       H  0.99447271  0.56097940  0.27570671     0.07830
H1434       H  0.05017867  0.59825162  0.33223055     0.09030
Cu1435     Cu  0.03992751  0.57443224  0.22908311     0.44170
Cu1436     Cu  0.08686824  0.60765398  0.27663439     0.41990
Cu1437     Cu  0.10618153  0.58840886  0.20674404     0.43880
N1438       N  0.05342883  0.56484398  0.18935689    -0.34590
N1439       N  0.07930539  0.56721866  0.18279454    -0.28850
C1440       C  0.08461708  0.55207930  0.16042693    -0.04950
C1441       C  0.06071187  0.53953145  0.15143253     0.07270
C1442       C  0.04123127  0.54898321  0.17036785     0.01070
H1443       H  0.10502302  0.54780128  0.15323818     0.08720
H1444       H  0.02074564  0.54114721  0.17274198     0.07800
N1445       N  0.12239902  0.62053470  0.22820760    -0.36040
N1446       N  0.11544210  0.62784693  0.25335478    -0.28220
C1447       C  0.12807685  0.65144798  0.25969582    -0.03460
C1448       C  0.14354550  0.65945193  0.23727064     0.05150
C1449       C  0.13949279  0.63921589  0.21776914     0.03240
H1450       H  0.12603468  0.66183478  0.27923015     0.08350
H1451       H  0.14779209  0.63812278  0.19723551     0.07180
N1452       N  0.09217027  0.46859103  0.19076133    -0.27210
N1453       N  0.07022475  0.47728133  0.20372262    -0.35060
C1454       C  0.05478040  0.49097882  0.18569487     0.01130
C1455       C  0.06817665  0.49263186  0.16023041     0.07160
C1456       C  0.09208707  0.47795440  0.16460287    -0.05940
H1457       H  0.03539252  0.49990408  0.19107817     0.07830
H1458       H  0.10831696  0.47444319  0.15001979     0.09030
Cu1459     Cu  0.06336985  0.47255370  0.24640294     0.44170
Cu1460     Cu  0.11789601  0.44128196  0.20969865     0.41990
Cu1461     Cu  0.08455879  0.41000626  0.27182949     0.43880
N1462       N  0.05598281  0.46072948  0.28749543    -0.34590
N1463       N  0.06057958  0.43522562  0.29501537    -0.28850
C1464       C  0.04612591  0.42936769  0.31766608    -0.04950
C1465       C  0.03164487  0.45260930  0.32589499     0.07270
C1466       C  0.03972730  0.47243540  0.30645529     0.01070
H1467       H  0.04348712  0.40869596  0.32540007     0.08720
H1468       H  0.03018756  0.49220285  0.30334074     0.07800
N1469       N  0.11943244  0.39666525  0.25316737    -0.36040
N1470       N  0.13187774  0.40828568  0.23207053    -0.28220
C1471       C  0.15445702  0.39403805  0.22632492    -0.03460
C1472       C  0.15643893  0.37249467  0.24479890     0.05150
C1473       C  0.13382910  0.37490211  0.26150343     0.03240
H1474       H  0.16771970  0.39871864  0.20924386     0.08350
H1475       H  0.12758304  0.36149165  0.27804418     0.07180
C1476       C  0.05973422  0.51149946  0.13617992    -0.02400
C1477       C  0.00303458  0.45144689  0.33936265    -0.02400
C1478       C  0.99234247  0.57376628  0.33561697    -0.02400
C1479       C  0.75428995  0.17422931  0.31619479     0.03210
C1480       C  0.77385614  0.19506439  0.31641333    -0.12940
C1481       C  0.76995280  0.21942330  0.30159215     0.00710
C1482       C  0.74590627  0.22239076  0.28626444    -0.11460
C1483       C  0.72784467  0.20023582  0.28273830     0.03210
C1484       C  0.73237729  0.17609217  0.29793233    -0.10880
H1485       H  0.79233806  0.19193777  0.32795208     0.08800
H1486       H  0.74126819  0.24191574  0.27687449     0.06330
H1487       H  0.71890634  0.15873335  0.29581480     0.06180
C1488       C  0.67380186  0.25738471  0.15237052     0.03210
C1489       C  0.67106529  0.23901546  0.17440772    -0.12940
C1490       C  0.68562700  0.24318300  0.19899477     0.00710
C1491       C  0.70244380  0.26643762  0.20114612    -0.11460
C1492       C  0.70787552  0.28291073  0.17818947     0.03210
C1493       C  0.69349795  0.27792816  0.15383534    -0.10880
H1494       H  0.65778382  0.22150556  0.17220700     0.08800
H1495       H  0.71167138  0.27141070  0.22065378     0.06330
H1496       H  0.69795467  0.28960662  0.13555022     0.06180
C1497       C  0.66068427  0.18629371  0.24634791     0.03210
C1498       C  0.68134596  0.18595765  0.26609207    -0.12940
C1499       C  0.70464598  0.20237426  0.26305674     0.00710
C1500       C  0.70624336  0.21995015  0.24018614    -0.11460
C1501       C  0.68407475  0.22322356  0.22218628     0.03210
C1502       C  0.66120142  0.20636955  0.22577783    -0.10880
H1503       H  0.67935665  0.17245989  0.28350520     0.08800
H1504       H  0.72507614  0.23064664  0.23597855     0.06330
H1505       H  0.64395722  0.20844569  0.21228275     0.06180
C1506       C  0.75251805  0.34180564  0.15575524     0.03210
C1507       C  0.72944175  0.32568964  0.15994232    -0.12940
C1508       C  0.72993654  0.30377616  0.17854298     0.00710
C1509       C  0.75265877  0.30089022  0.19579651    -0.11460
C1510       C  0.77521292  0.31850823  0.19321904     0.03210
C1511       C  0.77559126  0.33761008  0.17178472    -0.10880
H1512       H  0.71121844  0.33008519  0.14832480     0.08800
H1513       H  0.75276396  0.28508790  0.21128114     0.06330
H1514       H  0.79372060  0.34959247  0.16779492     0.06180
C1515       C  0.83374905  0.25974135  0.31976688     0.03210
C1516       C  0.81062782  0.24307370  0.32242015    -0.12940
C1517       C  0.79178944  0.24068398  0.30083459     0.00710
C1518       C  0.79476777  0.25793506  0.27792225    -0.11460
C1519       C  0.81693808  0.27601665  0.27575850     0.03210
C1520       C  0.83737014  0.27491509  0.29571928    -0.10880
H1521       H  0.80730517  0.23193759  0.34127808     0.08800
H1522       H  0.77968827  0.25750763  0.26189645     0.06330
H1523       H  0.85570193  0.28681203  0.29292024     0.06180
C1524       C  0.82727017  0.34595012  0.24330868     0.03210
C1525       C  0.80964763  0.34405308  0.22097076    -0.12940
C1526       C  0.79681665  0.31908453  0.21441681     0.00710
C1527       C  0.80251372  0.29579210  0.23032243    -0.11460
C1528       C  0.81713141  0.29828891  0.25491575     0.03210
C1529       C  0.82936585  0.32363781  0.26116030    -0.10880
H1530       H  0.80537689  0.36233485  0.20924801     0.08800
H1531       H  0.79456735  0.27602696  0.22416216     0.06330
H1532       H  0.83993166  0.32642851  0.28035067     0.06180
N1533       N  0.08489710  0.20811317  0.53830246    -0.27210
N1534       N  0.06161846  0.21952895  0.53150368    -0.35060
C1535       C  0.04796221  0.20230420  0.51507030     0.01130
C1536       C  0.06384637  0.17901065  0.50984920     0.07160
C1537       C  0.08745581  0.18387453  0.52508883    -0.05940
H1538       H  0.02838878  0.20715868  0.50626635     0.07830
H1539       H  0.10562707  0.17140663  0.52581188     0.09030
Cu1540     Cu  0.05253998  0.26027676  0.54073535     0.44170
Cu1541     Cu  0.10887942  0.22688823  0.56749552     0.41990
Cu1542     Cu  0.08196247  0.29519413  0.59607577     0.43880
N1543       N  0.04470782  0.30129674  0.54999225    -0.34590
N1544       N  0.05380361  0.31430752  0.57179405    -0.28850
C1545       C  0.04096945  0.33873687  0.57409027    -0.04950
C1546       C  0.02171700  0.34080991  0.55309892     0.07270
C1547       C  0.02669678  0.31727408  0.53732922     0.01070
H1548       H  0.04456782  0.35321217  0.59054187     0.08720
H1549       H  0.01835647  0.31172272  0.51775215     0.07800
N1550       N  0.10942855  0.26906416  0.61403266    -0.36040
N1551       N  0.11927121  0.24579594  0.60404089    -0.28220
C1552       C  0.13783769  0.23594240  0.62158405    -0.03460
C1553       C  0.13996595  0.25391149  0.64356403     0.05150
C1554       C  0.12153179  0.27458284  0.63799521     0.03240
H1555       H  0.14969725  0.21765902  0.61769312     0.08350
H1556       H  0.11810504  0.29328444  0.64946597     0.07180
N1557       N  0.08224286  0.20847731  0.43526982    -0.27210
N1558       N  0.05689647  0.21639892  0.43860814    -0.35060
C1559       C  0.04379696  0.19743781  0.45358275     0.01130
C1560       C  0.06204116  0.17675874  0.46139134     0.07160
C1561       C  0.08652218  0.18516892  0.44951451    -0.05940
H1562       H  0.02317332  0.19999292  0.46080532     0.07830
H1563       H  0.10620656  0.17552393  0.45188200     0.09030
Cu1564     Cu  0.04496295  0.25627773  0.42848265     0.44170
Cu1565     Cu  0.10655062  0.23003639  0.40860438     0.41990
Cu1566     Cu  0.07063435  0.28859508  0.36996956     0.43880
N1567       N  0.03901673  0.29789116  0.41969640    -0.34590
N1568       N  0.04562099  0.30958562  0.39626119    -0.28850
C1569       C  0.03582935  0.33553639  0.39565178    -0.04950
C1570       C  0.02306900  0.34094627  0.42062372     0.07270
C1571       C  0.02625178  0.31638632  0.43529261     0.01070
H1572       H  0.03743392  0.34914675  0.37818752     0.08720
H1573       H  0.01919239  0.31191726  0.45579883     0.07800
N1574       N  0.10288083  0.26518439  0.35669617    -0.36040
N1575       N  0.11603412  0.24594403  0.37056631    -0.28220
C1576       C  0.13739372  0.23753282  0.35572582    -0.03460
C1577       C  0.13797353  0.25228801  0.33148299     0.05150
C1578       C  0.11570644  0.26957240  0.33284426     0.03240
H1579       H  0.15216338  0.22279014  0.36299806     0.08350
H1580       H  0.10985322  0.28537878  0.31845240     0.07180
C1581       C  0.00353895  0.36425184  0.42872017    -0.02400
C1582       C  0.05839691  0.15790494  0.48662698    -0.02400
C1583       C  0.99866374  0.36227721  0.54807871    -0.02400
N1584       N  0.94889383  0.31755475  0.40606072    -0.27210
N1585       N  0.95376060  0.30808775  0.43083784    -0.35060
C1586       C  0.96844428  0.32694497  0.44454108     0.01130
C1587       C  0.97603952  0.34831515  0.42671057     0.07160
C1588       C  0.96260647  0.34123851  0.40239191    -0.05940
H1589       H  0.97686598  0.32324021  0.46461811     0.07830
H1590       H  0.96468061  0.35122272  0.38266826     0.09030
Cu1591     Cu  0.94950512  0.26579689  0.43907068     0.44170
Cu1592     Cu  0.92304422  0.29642372  0.38032106     0.41990
Cu1593     Cu  0.88665497  0.24051440  0.41879265     0.43880
N1594       N  0.93934643  0.22384834  0.44203881    -0.34590
N1595       N  0.91368873  0.21655705  0.43983202    -0.28850
C1596       C  0.91021558  0.19141606  0.45048745    -0.04950
C1597       C  0.93536606  0.18077770  0.45843961     0.07270
C1598       C  0.95342081  0.20229686  0.45199671     0.01070
H1599       H  0.89046465  0.18217742  0.45390752     0.08720
H1600       H  0.97451721  0.20359726  0.45807303     0.07800
N1601       N  0.87506671  0.25692041  0.38179297    -0.36040
N1602       N  0.88857345  0.27569537  0.36762494    -0.28220
C1603       C  0.87597411  0.27962746  0.34358727    -0.03460
C1604       C  0.85365539  0.26221735  0.34231537     0.05150
C1605       C  0.85380634  0.24812716  0.36695455     0.03240
H1606       H  0.88276277  0.29430746  0.32841171     0.08350
H1607       H  0.83991218  0.23225458  0.37368125     0.07180
N1608       N  0.91141432  0.21023983  0.53401147    -0.27210
N1609       N  0.93473522  0.22196299  0.52759254    -0.35060
C1610       C  0.94926264  0.20426104  0.51241991     0.01130
C1611       C  0.93364104  0.18072950  0.50675622     0.07160
C1612       C  0.90962014  0.18555630  0.52136180    -0.05940
H1613       H  0.96891031  0.20933337  0.50383820     0.07830
H1614       H  0.89152980  0.17287298  0.52154340     0.09030
Cu1615     Cu  0.94211338  0.26425660  0.53341056     0.44170
Cu1616     Cu  0.88557427  0.22975207  0.56122660     0.41990
Cu1617     Cu  0.90933660  0.30001897  0.58618590     0.43880
N1618       N  0.94783986  0.30653997  0.54098383    -0.34590
N1619       N  0.93765157  0.31931030  0.56245936    -0.28850
C1620       C  0.95100368  0.34321759  0.56649413    -0.04950
C1621       C  0.97200045  0.34506822  0.54737276     0.07270
C1622       C  0.96701924  0.32266251  0.53002293     0.01070
H1623       H  0.94719934  0.35677723  0.58363451     0.08720
H1624       H  0.97760391  0.31726505  0.51154526     0.07800
N1625       N  0.88114513  0.27516782  0.60440337    -0.36040
N1626       N  0.87227265  0.25100895  0.59559440    -0.28220
C1627       C  0.85372032  0.24155647  0.61343447    -0.03460
C1628       C  0.85078855  0.26071835  0.63425232     0.05150
C1629       C  0.86848478  0.28169711  0.62784984     0.03240
H1630       H  0.84340116  0.22201451  0.61137780     0.08350
H1631       H  0.87166138  0.30068616  0.63896503     0.07180
C1632       C  0.93898590  0.16051671  0.48232173    -0.02400
C1633       C  0.96925469  0.14973937  0.48437552    -0.06040
C1634       C  0.98288099  0.14957749  0.51000472    -0.17170
C1635       C  0.01146483  0.14800578  0.51211755     0.11160
C1636       C  0.02799300  0.14770397  0.48802597    -0.05970
C1637       C  0.01413958  0.14196957  0.46338456    -0.17200
C1638       C  0.98563265  0.14219028  0.46144807     0.11190
S1639       S  0.02511906  0.14533500  0.54625046    -0.32170
S1640       S  0.97237843  0.13146492  0.42907262    -0.32170
H1641       H  0.95593377  0.11124095  0.44134041     0.29200
H1642       H  0.03379248  0.11816869  0.54168870     0.29190
H1643       H  0.97129522  0.15150958  0.52882008     0.19790
H1644       H  0.02551074  0.13903968  0.44470289     0.19790
C1645       C  0.00767290  0.37345797  0.45941314    -0.06040
C1646       C  0.98447618  0.38471396  0.47263659    -0.17170
C1647       C  0.98115648  0.38424948  0.50139089     0.11160
C1648       C  0.00259857  0.37435861  0.51833178    -0.05970
C1649       C  0.02808355  0.37175629  0.50544766    -0.17200
C1650       C  0.03090220  0.36862220  0.47697012     0.11190
S1651       S  0.94834898  0.39507978  0.51421136    -0.32170
S1652       S  0.06527268  0.35719572  0.46865329    -0.32170
H1653       H  0.06616020  0.35331882  0.44057609     0.29200
H1654       H  0.95620031  0.40015935  0.54135182     0.29190
H1655       H  0.96723428  0.39101946  0.46032357     0.19790
H1656       H  0.04597534  0.36877565  0.51807550     0.19790
C1657       C  0.00246334  0.43258182  0.36599707    -0.06040
C1658       C  0.02697991  0.42331799  0.37791640    -0.17170
C1659       C  0.02796131  0.40347520  0.39896841     0.11160
C1660       C  0.00393257  0.39012543  0.40863626    -0.05970
C1661       C  0.97933839  0.40278173  0.40004384    -0.17200
C1662       C  0.97844268  0.42405887  0.38013306     0.11190
S1663       S  0.06085234  0.39873817  0.41366723    -0.32170
S1664       S  0.94604930  0.44045502  0.37541511    -0.32170
H1665       H  0.95620164  0.46663818  0.38208677     0.29200
H1666       H  0.05207548  0.40852242  0.43937150     0.29190
H1667       H  0.04610259  0.43231219  0.37159129     0.19790
H1668       H  0.96030670  0.39664439  0.40940983     0.19790
C1669       C  0.99488528  0.48186692  0.34623142    -0.06040
C1670       C  0.01186012  0.49855515  0.36297123    -0.17170
C1671       C  0.01103158  0.52794271  0.36180599     0.11160
C1672       C  0.99393447  0.54162939  0.34201373    -0.05970
C1673       C  0.98148299  0.52330843  0.32352749    -0.17200
C1674       C  0.97592160  0.49626763  0.33011243     0.11190
S1675       S  0.03484379  0.54540128  0.38388780    -0.32170
S1676       S  0.94269742  0.48319779  0.32070746    -0.32170
H1677       H  0.93895574  0.50037877  0.29782159     0.29200
H1678       H  0.04267594  0.56493537  0.36448373     0.29190
H1679       H  0.02697853  0.48868911  0.37577823     0.19790
H1680       H  0.97695258  0.52888974  0.30281113     0.19790
C1681       C  0.97036960  0.50826489  0.12667749    -0.06040
C1682       C  0.98466477  0.48322640  0.12821868    -0.17170
C1683       C  0.01300934  0.48193490  0.13188738     0.11160
C1684       C  0.02939913  0.50606793  0.12691348    -0.05970
C1685       C  0.01497569  0.52897646  0.11631433    -0.17200
C1686       C  0.98633035  0.53111729  0.11813931     0.11190
S1687       S  0.02290773  0.44843325  0.14513624    -0.32170
S1688       S  0.97216459  0.56421027  0.11081571    -0.32170
H1689       H  0.96332308  0.55564819  0.08467908     0.29200
H1690       H  0.05096137  0.44849436  0.14501393     0.29190
H1691       H  0.97336997  0.46432592  0.13066308     0.19790
H1692       H  0.02627704  0.54710210  0.11017927     0.19790
C1693       C  0.63851537  0.48315014  0.99280873    -0.06040
C1694       C  0.63075126  0.49502482  0.96761898    -0.17170
C1695       C  0.62965094  0.52364977  0.96373962     0.11160
C1696       C  0.63694275  0.54196584  0.98534343    -0.05970
C1697       C  0.63780153  0.53005864  0.01172210    -0.17200
C1698       C  0.63889841  0.50146922  0.01591413     0.11190
S1699       S  0.61728257  0.53458165  0.93107433    -0.32170
S1700       S  0.64151591  0.49054086  0.05127360    -0.32170
H1701       H  0.63173353  0.51472095  0.06367713     0.29200
H1702       H  0.59917321  0.55352334  0.94293280     0.29190
H1703       H  0.62717631  0.48185121  0.95005672     0.19790
H1704       H  0.63980447  0.54334880  0.02939892     0.19790
C1705       C  0.87682844  0.51353913  0.06934075    -0.06040
C1706       C  0.88822497  0.48834001  0.07825731    -0.17170
C1707       C  0.90916742  0.48650381  0.09819107     0.11160
C1708       C  0.91923381  0.51036198  0.11192370    -0.05970
C1709       C  0.91027508  0.53552911  0.10050853    -0.17200
C1710       C  0.89022548  0.53756620  0.07960573     0.11190
S1711       S  0.92317158  0.45283627  0.10344749    -0.32170
S1712       S  0.88323398  0.57159896  0.06651806    -0.32170
H1713       H  0.90610016  0.58507257  0.07756163     0.29200
H1714       H  0.94702737  0.45957132  0.08891138     0.29190
H1715       H  0.88076699  0.46933888  0.06966439     0.19790
H1716       H  0.91876459  0.55436890  0.10816287     0.19790
C1717       C  0.86449100  0.51643690  0.95836999    -0.06040
C1718       C  0.86553820  0.49087206  0.97219827    -0.17170
C1719       C  0.86522634  0.48887215  0.00108951     0.11160
C1720       C  0.86283818  0.51299663  0.01765201    -0.05970
C1721       C  0.86759560  0.53799954  0.00392618    -0.17200
C1722       C  0.86963082  0.53976207  0.97521081     0.11190
S1723       S  0.86829377  0.45480853  0.01501874    -0.32170
S1724       S  0.88166350  0.57188827  0.96237137    -0.32170
H1725       H  0.90068082  0.55914976  0.94493649     0.29200
H1726       H  0.89486137  0.46004155  0.02445037     0.29190
H1727       H  0.86522377  0.47198883  0.96042163     0.19790
H1728       H  0.86868970  0.55686645  0.01544376     0.19790
C1729       C  0.00013273  0.43004673  0.61232531    -0.06040
C1730       C  0.99608356  0.40210251  0.61939030    -0.17170
C1731       C  0.99568716  0.38009664  0.60044620     0.11160
C1732       C  0.99901411  0.38513527  0.57151357    -0.05970
C1733       C  0.00460830  0.41290323  0.56452618    -0.17200
C1734       C  0.00607914  0.43461028  0.58390340     0.11190
S1735       S  0.99191091  0.34684567  0.61716606    -0.32170
S1736       S  0.01897172  0.46626949  0.57005486    -0.32170
H1737       H  0.04226499  0.46543710  0.58673267     0.29200
H1738       H  0.99276853  0.32867703  0.59506749     0.29190
H1739       H  0.99395420  0.39690904  0.64089722     0.19790
H1740       H  0.00905017  0.41819271  0.54345674     0.19790
C1741       C  0.00457214  0.48287166  0.62805451    -0.06040
C1742       C  0.98367807  0.49722863  0.61422235    -0.17170
C1743       C  0.98598339  0.52540237  0.60821920     0.11160
C1744       C  0.00414788  0.54185892  0.62384710    -0.05970
C1745       C  0.02747704  0.52752358  0.63305359    -0.17200
C1746       C  0.02847938  0.49857358  0.63427729     0.11190
S1747       S  0.98192779  0.53169645  0.57204600    -0.32170
S1748       S  0.06139510  0.48318991  0.64068835    -0.32170
H1749       H  0.07480518  0.50681429  0.65043393     0.29200
H1750       H  0.00501057  0.54874111  0.56983416     0.29190
H1751       H  0.96739301  0.48553178  0.60476546     0.19790
H1752       H  0.04511740  0.53892113  0.63970397     0.19790
C1753       C  0.87805496  0.51805287  0.90617246    -0.06040
C1754       C  0.89143986  0.49275717  0.90100961    -0.17170
C1755       C  0.91138964  0.48899014  0.88000439     0.11160
C1756       C  0.92006126  0.51148260  0.86322598    -0.05970
C1757       C  0.90970122  0.53722988  0.87119408    -0.17200
C1758       C  0.88881212  0.54116986  0.89076337     0.11190
S1759       S  0.92488396  0.45482020  0.87535852    -0.32170
S1760       S  0.87939406  0.57740717  0.89183833    -0.32170
H1761       H  0.86229265  0.58040875  0.91412611     0.29200
H1762       H  0.91302199  0.44253840  0.89860730     0.29190
H1763       H  0.88527246  0.47514201  0.91301173     0.19790
H1764       H  0.91761452  0.55534652  0.86122259     0.19790
C1765       C  0.97087277  0.50944927  0.84736830    -0.06040
C1766       C  0.98428587  0.48419649  0.85151119    -0.17170
C1767       C  0.01260538  0.48221667  0.85491283     0.11160
C1768       C  0.02970224  0.50545783  0.85085097    -0.05970
C1769       C  0.01608351  0.53112404  0.85181179    -0.17200
C1770       C  0.98741982  0.53335520  0.85066931     0.11190
S1771       S  0.02460383  0.44976376  0.86692825    -0.32170
S1772       S  0.97369681  0.56745056  0.85347099    -0.32170
H1773       H  0.96210637  0.56174450  0.87927197     0.29200
H1774       H  0.04223770  0.46199061  0.88611678     0.29190
H1775       H  0.97284871  0.46530053  0.85149522     0.19790
H1776       H  0.02790368  0.54992111  0.85205187     0.19790
C1777       C  0.58147205  0.38944681  0.98343251    -0.06040
C1778       C  0.58780411  0.40118332  0.00918906    -0.17170
C1779       C  0.60875640  0.42099553  0.01316716     0.11160
C1780       C  0.62415154  0.43150894  0.99044664    -0.05970
C1781       C  0.61480281  0.42287474  0.96440187    -0.17200
C1782       C  0.59497641  0.40202268  0.96043779     0.11190
S1783       S  0.61515550  0.43112891  0.04811430    -0.32170
S1784       S  0.58737367  0.39411679  0.92503931    -0.32170
H1785       H  0.61260075  0.40215423  0.91389058     0.29200
H1786       H  0.59054343  0.42186067  0.05965882     0.29190
H1787       H  0.57700547  0.39358538  0.02697410     0.19790
H1788       H  0.62331715  0.43254835  0.94638281     0.19790
C1789       C  0.47130671  0.37552601  0.99292829    -0.06040
C1790       C  0.48363151  0.38141390  0.96732620    -0.17170
C1791       C  0.51209258  0.37931285  0.96279983     0.11160
C1792       C  0.53021052  0.37380649  0.98510675    -0.05970
C1793       C  0.51820217  0.37488740  0.01141416    -0.17200
C1794       C  0.48976717  0.37412054  0.01568924     0.11190
S1795       S  0.52363203  0.38248814  0.92784635    -0.32170
S1796       S  0.47913320  0.37127598  0.05099522    -0.32170
H1797       H  0.50282882  0.35861779  0.06111693     0.29200
H1798       H  0.49944133  0.39268136  0.91629645     0.29190
H1799       H  0.47047355  0.38467807  0.94984837     0.19790
H1800       H  0.53134001  0.37417013  0.02919279     0.19790
C1801       C  0.49704167  0.14938424  0.95851529    -0.06040
C1802       C  0.52174318  0.14438593  0.97248406    -0.17170
C1803       C  0.52300782  0.14325173  0.00123458     0.11160
C1804       C  0.49900449  0.14802434  0.01698252    -0.05970
C1805       C  0.47406235  0.14478315  0.00280002    -0.17200
C1806       C  0.47281518  0.14509877  0.97389642     0.11190
S1807       S  0.55610115  0.13640437  0.01582573    -0.32170
S1808       S  0.44038092  0.13957410  0.95721990    -0.32170
H1809       H  0.42440638  0.13819563  0.98116265     0.29200
H1810       H  0.54680517  0.12731689  0.04145638     0.29190
H1811       H  0.54059376  0.14307981  0.96100623     0.19790
H1812       H  0.45530347  0.14389513  0.01441067     0.19790
C1813       C  0.37514235  0.43249251  0.99329585    -0.06040
C1814       C  0.38626636  0.42157694  0.01777913    -0.17170
C1815       C  0.40786252  0.40248051  0.01873816     0.11160
C1816       C  0.41950644  0.39139861  0.99413504    -0.05970
C1817       C  0.41132684  0.40519075  0.96975322    -0.17200
C1818       C  0.39049392  0.42575626  0.96901406     0.11190
S1819       S  0.41933094  0.39382456  0.05277247    -0.32170
S1820       S  0.38751356  0.44393168  0.93671250    -0.32170
H1821       H  0.36942113  0.46437510  0.94529805     0.29200
H1822       H  0.41190718  0.41855978  0.06576590     0.29190
H1823       H  0.37824260  0.42840883  0.03725259     0.19790
H1824       H  0.42149810  0.40004452  0.95070656     0.19790
C1825       C  0.35285225  0.48370678  0.99403861    -0.06040
C1826       C  0.32977802  0.50059307  0.99742275    -0.17170
C1827       C  0.33152977  0.52792673  0.00502495     0.11160
C1828       C  0.35317033  0.54393496  0.99483251    -0.05970
C1829       C  0.37651477  0.52858283  0.98699006    -0.17200
C1830       C  0.37760262  0.49927615  0.99006105     0.11190
S1831       S  0.31103468  0.53756767  0.03429565    -0.32170
S1832       S  0.41113449  0.48473481  0.98983470    -0.32170
H1833       H  0.40808242  0.47384837  0.01639736     0.29200
H1834       H  0.28829294  0.52115356  0.02781644     0.29190
H1835       H  0.30982287  0.49233827  0.99958409     0.19790
H1836       H  0.39446879  0.53943438  0.97995320     0.19790
C1837       C  0.08044224  0.51195534  0.11061480    -0.06040
C1838       C  0.09004650  0.53722278  0.09952930    -0.17170
C1839       C  0.11123498  0.53906899  0.07970736     0.11160
C1840       C  0.12516506  0.51511937  0.07007398    -0.05970
C1841       C  0.11275113  0.49014788  0.07806560    -0.17200
C1842       C  0.09071371  0.48832928  0.09672685     0.11190
S1843       S  0.11759840  0.57287688  0.06630570    -0.32170
S1844       S  0.07545598  0.45507545  0.09889192    -0.32170
H1845       H  0.04976556  0.46504199  0.09110254     0.29200
H1846       H  0.09801796  0.56945973  0.04548848     0.29190
H1847       H  0.08060968  0.55626629  0.10585236     0.19790
H1848       H  0.11978659  0.47116259  0.06946556     0.19790
C1849       C  0.12304803  0.50943252  0.90860929    -0.06040
C1850       C  0.11484884  0.48368673  0.89805441    -0.17170
C1851       C  0.09626256  0.48006504  0.87620063     0.11160
C1852       C  0.08129567  0.50331711  0.86532486    -0.05970
C1853       C  0.08610700  0.52836773  0.87927031    -0.17200
C1854       C  0.10649532  0.53181664  0.89965855     0.11190
S1855       S  0.09598553  0.44413914  0.86552956    -0.32170
S1856       S  0.10895656  0.56564355  0.91355424    -0.32170
H1857       H  0.09836683  0.55700741  0.93898772     0.29200
H1858       H  0.07310857  0.44103690  0.84942544     0.29190
H1859       H  0.12345018  0.46525102  0.90678987     0.19790
H1860       H  0.07424719  0.54619330  0.87351948     0.19790
C1861       C  0.13916283  0.51574803  0.95962324    -0.06040
C1862       C  0.13059903  0.49237647  0.97454217    -0.17170
C1863       C  0.13297622  0.49096151  0.00343738     0.11160
C1864       C  0.13988141  0.51496378  0.01880170    -0.05970
C1865       C  0.13911501  0.53976141  0.00396046    -0.17200
C1866       C  0.14232793  0.54050407  0.97532842     0.11190
S1867       S  0.12922359  0.45752050  0.01876230    -0.32170
S1868       S  0.15188049  0.57367625  0.96138597    -0.32170
H1869       H  0.16250478  0.58524845  0.98561745     0.29200
H1870       H  0.11160245  0.44679462  0.99863181     0.29190
H1871       H  0.12608228  0.47370447  0.96331110     0.19790
H1872       H  0.13986276  0.55897683  0.01496804     0.19790
C1873       C  0.47031646  0.00552163  0.62681338    -0.06040
C1874       C  0.48399690  0.02961827  0.61812483    -0.17170
C1875       C  0.51269222  0.03187958  0.61808479     0.11160
C1876       C  0.52922884  0.00946175  0.62666071    -0.05970
C1877       C  0.51567110  0.98415517  0.62963850    -0.17200
C1878       C  0.48719501  0.98170251  0.63020488     0.11190
S1879       S  0.52661054  0.06449412  0.60807727    -0.32170
S1880       S  0.47467216  0.94712435  0.63512176    -0.32170
H1881       H  0.49696831  0.93704631  0.65017747     0.29200
H1882       H  0.53994108  0.05298656  0.58523666     0.29190
H1883       H  0.47219180  0.04776709  0.61335653     0.19790
H1884       H  0.52749710  0.96584000  0.63313955     0.19790
C1885       C  0.49803332  0.09328838  0.86487191    -0.06040
C1886       C  0.49786362  0.12137610  0.85735458    -0.17170
C1887       C  0.49779203  0.14357687  0.87618130     0.11160
C1888       C  0.49704704  0.13865288  0.90535568    -0.05970
C1889       C  0.49621806  0.11054333  0.91291695    -0.17200
C1890       C  0.49650177  0.08849450  0.89392864     0.11190
S1891       S  0.49911372  0.17683844  0.85916246    -0.32170
S1892       S  0.49404348  0.05523954  0.90987053    -0.32170
H1893       H  0.46603021  0.05332857  0.90414255     0.29200
H1894       H  0.50018446  0.19495982  0.88129545     0.29190
H1895       H  0.49787450  0.12646812  0.83573341     0.19790
H1896       H  0.49523196  0.10496677  0.93434765     0.19790
C1897       C  0.49903820  0.98165668  0.85096615    -0.06040
C1898       C  0.52347117  0.99622702  0.85573915    -0.17170
C1899       C  0.52418894  0.02505513  0.85668975     0.11160
C1900       C  0.49998007  0.04033884  0.85142172    -0.05970
C1901       C  0.47522794  0.02565072  0.85329921    -0.17200
C1902       C  0.47450099  0.99689045  0.85439157     0.11190
S1903       S  0.55676476  0.04050821  0.86439581    -0.32170
S1904       S  0.44156125  0.98153830  0.86049634    -0.32170
H1905       H  0.45153838  0.95685501  0.87139111     0.29200
H1906       H  0.54636132  0.06553821  0.87410563     0.29190
H1907       H  0.54249872  0.98511571  0.85724605     0.19790
H1908       H  0.45610806  0.03671023  0.85328979     0.19790
C1909       C  0.41867186  0.63423814  0.97892737    -0.06040
C1910       C  0.41372203  0.61971442  0.00367665    -0.17170
C1911       C  0.39330806  0.59904248  0.00656841     0.11160
C1912       C  0.37584759  0.59210704  0.98397121    -0.05970
C1913       C  0.38502676  0.60227815  0.95844192    -0.17200
C1914       C  0.40457561  0.62325397  0.95524261     0.11190
S1915       S  0.39455708  0.58058329  0.03882137    -0.32170
S1916       S  0.40808205  0.63233021  0.91906359    -0.32170
H1917       H  0.43273206  0.64605132  0.91754744     0.29200
H1918       H  0.37044919  0.56558801  0.03736467     0.29190
H1919       H  0.42584805  0.62489921  0.02151931     0.19790
H1920       H  0.37693755  0.59363829  0.93975665     0.19790
C1921       C  0.57911207  0.63461392  0.98787334    -0.06040
C1922       C  0.58931233  0.62652810  0.96198077    -0.17170
C1923       C  0.61106735  0.60797316  0.95803119     0.11160
C1924       C  0.62269087  0.59343799  0.98120014    -0.05970
C1925       C  0.60907582  0.59800039  0.00642469    -0.17200
C1926       C  0.58810443  0.61772677  0.01001621     0.11190
S1927       S  0.62047681  0.60684902  0.92183910    -0.32170
S1928       S  0.57281234  0.61806275  0.04328072    -0.32170
H1929       H  0.54660145  0.61375235  0.03255317     0.29200
H1930       H  0.63502372  0.58277485  0.91894077     0.29190
H1931       H  0.58033256  0.63528909  0.94372782     0.19790
H1932       H  0.61517136  0.58611664  0.02415442     0.19790
C1933       C  0.52835643  0.65154364  0.99241084    -0.06040
C1934       C  0.51624897  0.64059954  0.96844607    -0.17170
C1935       C  0.48777551  0.63960738  0.96449486     0.11160
C1936       C  0.46966594  0.64998012  0.98482846    -0.05970
C1937       C  0.48164798  0.65393181  0.01088793    -0.17200
C1938       C  0.50990580  0.65602617  0.01509667     0.11190
S1939       S  0.47676043  0.62265618  0.93392202    -0.32170
S1940       S  0.51751928  0.66530922  0.05049532    -0.32170
H1941       H  0.54537486  0.66212586  0.05240106     0.29200
H1942       H  0.45798155  0.60608235  0.94806778     0.29190
H1943       H  0.52925769  0.63421643  0.95164543     0.19790
H1944       H  0.46860234  0.65725242  0.02850427     0.19790
C1945       C  0.50011740  0.88831970  0.90664309    -0.06040
C1946       C  0.50064217  0.88076944  0.87860588    -0.17170
C1947       C  0.50116515  0.89954604  0.85660295     0.11160
C1948       C  0.50076795  0.92863442  0.86177311    -0.05970
C1949       C  0.50056575  0.93632265  0.88982478    -0.17200
C1950       C  0.50018681  0.91737473  0.91184049     0.11190
S1951       S  0.50220998  0.88261237  0.82324156    -0.32170
S1952       S  0.49860938  0.93274110  0.94566964    -0.32170
H1953       H  0.51148612  0.95774671  0.93910585     0.29200
H1954       H  0.50215309  0.90476920  0.80514317     0.29190
H1955       H  0.50053895  0.85913511  0.87342732     0.19790
H1956       H  0.50002198  0.95780484  0.89517963     0.19790
C1957       C  0.50030703  0.87411675  0.95914359    -0.06040
C1958       C  0.47565803  0.87767609  0.97372026    -0.17170
C1959       C  0.47480388  0.87827926  0.00244650     0.11160
C1960       C  0.49910978  0.87369223  0.01769825    -0.05970
C1961       C  0.52390466  0.87630348  0.00314734    -0.17200
C1962       C  0.52479892  0.87729678  0.97445549     0.11190
S1963       S  0.44190885  0.88471997  0.01778038    -0.32170
S1964       S  0.55794243  0.88270457  0.95925793    -0.32170
H1965       H  0.54842675  0.89410433  0.93463013     0.29200
H1966       H  0.45176150  0.89460012  0.04294501     0.29190
H1967       H  0.45663356  0.87911540  0.96259243     0.19790
H1968       H  0.54299125  0.87675352  0.01425746     0.19790
C1969       C  0.37711017  0.01290808  0.56812661    -0.06040
C1970       C  0.38763416  0.98738931  0.57697120    -0.17170
C1971       C  0.40803288  0.98471247  0.59735896     0.11160
C1972       C  0.41941058  0.00841548  0.61058438    -0.05970
C1973       C  0.41200508  0.03376989  0.59857724    -0.17200
C1974       C  0.39188729  0.03625048  0.57791458     0.11190
S1975       S  0.41815979  0.95010972  0.60528599    -0.32170
S1976       S  0.38787815  0.07007722  0.56435816    -0.32170
H1977       H  0.39922557  0.06218005  0.53900719     0.29200
H1978       H  0.40933317  0.93750653  0.58084105     0.29190
H1979       H  0.37972294  0.96880366  0.56786203     0.19790
H1980       H  0.42210228  0.05235937  0.60533497     0.19790
C1981       C  0.12150183  0.09068344  0.49114837    -0.06040
C1982       C  0.11016999  0.09869372  0.46560672    -0.17170
C1983       C  0.08923002  0.11867503  0.46299896     0.11160
C1984       C  0.07898712  0.13276143  0.48672305    -0.05970
C1985       C  0.08744145  0.12178797  0.51206887    -0.17200
C1986       C  0.10741134  0.10115290  0.51454393     0.11190
S1987       S  0.07563510  0.12417942  0.42893060    -0.32170
S1988       S  0.11161562  0.08826453  0.54852641    -0.32170
H1989       H  0.10136077  0.06235951  0.54088540     0.29200
H1990       H  0.08817287  0.10182574  0.41569459     0.29190
H1991       H  0.11761759  0.08899551  0.44713434     0.19790
H1992       H  0.07845407  0.12949683  0.53075902     0.19790
C1993       C  0.13777853  0.03975546  0.49613512    -0.06040
C1994       C  0.12731489  0.02625576  0.47260801    -0.17170
C1995       C  0.12763116  0.99741415  0.46967526     0.11160
C1996       C  0.13807399  0.98052648  0.49098377    -0.05970
C1997       C  0.14235671  0.99365829  0.51633069    -0.17200
C1998       C  0.14268556  0.02227008  0.51960759     0.11190
S1999       S  0.11589348  0.98386606  0.43749128    -0.32170
S2000       S  0.14921850  0.03118439  0.55538818    -0.32170
H2001       H  0.15510904  0.05892767  0.55600092     0.29200
H2002       H  0.09399170  0.97011756  0.45007326     0.29190
H2003       H  0.12116728  0.03840767  0.45506327     0.19790
H2004       H  0.14745919  0.98138470  0.53406650     0.19790
C2005       C  0.36012904  0.01375490  0.45817760    -0.06040
C2006       C  0.35581466  0.03887043  0.47180125    -0.17170
C2007       C  0.35541242  0.04126832  0.50045572     0.11160
C2008       C  0.36091980  0.01768198  0.51723041    -0.05970
C2009       C  0.37162980  0.99455459  0.50341532    -0.17200
C2010       C  0.37090887  0.99203176  0.47447809     0.11190
S2011       S  0.34780915  0.07539826  0.51325012    -0.32170
S2012       S  0.38221181  0.96009188  0.45948213    -0.32170
H2013       H  0.39258893  0.94808207  0.48354930     0.29200
H2014       H  0.33195465  0.08422069  0.49087522     0.29190
H2015       H  0.35088967  0.05688516  0.45993681     0.19790
H2016       H  0.37787197  0.97706669  0.51555929     0.19790
C2017       C  0.41771576  0.01050409  0.36496669    -0.06040
C2018       C  0.40746340  0.03518742  0.37634979    -0.17170
C2019       C  0.38781157  0.03578595  0.39768045     0.11160
C2020       C  0.37482309  0.01121745  0.40691519    -0.05970
C2021       C  0.38650131  0.98660111  0.39693467    -0.17200
C2022       C  0.40837010  0.98588169  0.37799791     0.11190
S2023       S  0.38120282  0.06886076  0.41262789    -0.32170
S2024       S  0.42384815  0.95271895  0.37199277    -0.32170
H2025       H  0.41393593  0.93955908  0.39571068     0.29200
H2026       H  0.39576997  0.06221589  0.43657923     0.29190
H2027       H  0.41489862  0.05463022  0.36877298     0.19790
H2028       H  0.37874411  0.96720136  0.40415531     0.19790
C2029       C  0.46879186  0.01198129  0.34994253    -0.06040
C2030       C  0.48347842  0.98727940  0.35311355    -0.17170
C2031       C  0.51206238  0.98657354  0.35497969     0.11160
C2032       C  0.52778855  0.01091143  0.35097954    -0.05970
C2033       C  0.51305004  0.03578887  0.35209026    -0.17200
C2034       C  0.48439192  0.03658450  0.35287508     0.11190
S2035       S  0.52680392  0.95362862  0.36235499    -0.32170
S2036       S  0.46939793  0.06992709  0.35767243    -0.32170
H2037       H  0.45959483  0.06282451  0.38387701     0.29200
H2038       H  0.53563334  0.96241771  0.38841415     0.29190
H2039       H  0.47290632  0.96788103  0.35288861     0.19790
H2040       H  0.52374932  0.05514230  0.35102162     0.19790
C2041       C  0.50000171  0.09242240  0.11080108    -0.06040
C2042       C  0.49957803  0.12052000  0.11828603    -0.17170
C2043       C  0.49979606  0.14260410  0.09938375     0.11160
C2044       C  0.49948417  0.13748253  0.07023761    -0.05970
C2045       C  0.49927219  0.10936124  0.06272002    -0.17200
C2046       C  0.50029271  0.08745678  0.08172588     0.11190
S2047       S  0.50042458  0.17601295  0.11620210    -0.32170
S2048       S  0.50264565  0.05420269  0.06569280    -0.32170
H2049       H  0.53085606  0.05275566  0.07046010     0.29200
H2050       H  0.49963029  0.19398002  0.09396716     0.29190
H2051       H  0.49921952  0.12567460  0.13990936     0.19790
H2052       H  0.49897489  0.10369600  0.04127650     0.19790
C2053       C  0.50040572  0.92786701  0.11512895    -0.06040
C2054       C  0.50066215  0.93533819  0.08705104    -0.17170
C2055       C  0.50068651  0.91626632  0.06520737     0.11160
C2056       C  0.49975385  0.88721014  0.07027270    -0.05970
C2057       C  0.49963076  0.87977054  0.09832559    -0.17200
C2058       C  0.49955167  0.89874512  0.12033316     0.11190
S2059       S  0.50293321  0.93222740  0.03193349    -0.32170
S2060       S  0.49799681  0.88205322  0.15373165    -0.32170
H2061       H  0.49830164  0.90435240  0.17169106     0.29200
H2062       H  0.53128991  0.92830776  0.03073477     0.29190
H2063       H  0.50130919  0.95676228  0.08134288     0.19790
H2064       H  0.49985331  0.85814466  0.10348531     0.19790
C2065       C  0.50176794  0.98101167  0.12551238    -0.06040
C2066       C  0.47702684  0.99505853  0.12086915    -0.17170
C2067       C  0.47576683  0.02383832  0.11993908     0.11160
C2068       C  0.49987556  0.03958715  0.12430503    -0.05970
C2069       C  0.52480084  0.02531040  0.12168382    -0.17200
C2070       C  0.52600994  0.99655375  0.12148696     0.11190
S2071       S  0.44266608  0.03856382  0.11339069    -0.32170
S2072       S  0.55918670  0.98160554  0.11595318    -0.32170
H2073       H  0.54964079  0.95637172  0.10582862     0.29200
H2074       H  0.45218652  0.06381364  0.10335559     0.29190
H2075       H  0.45815093  0.98358551  0.11971187     0.19790
H2076       H  0.54374571  0.03670052  0.12090020     0.19790
C2077       C  0.99990839  0.63829594  0.57016443    -0.06040
C2078       C  0.98423949  0.61409620  0.56674302    -0.17170
C2079       C  0.97927348  0.59531582  0.58837766     0.11160
C2080       C  0.99644384  0.59525371  0.61217766    -0.05970
C2081       C  0.00838600  0.62130265  0.61720339    -0.17200
C2082       C  0.00852287  0.64306546  0.59799330     0.11190
S2083       S  0.94464570  0.58215812  0.58784873    -0.32170
S2084       S  0.01597167  0.67621387  0.61357020    -0.32170
H2085       H  0.00663932  0.69395161  0.59318035     0.29200
H2086       H  0.94619687  0.56096245  0.60692924     0.29190
H2087       H  0.97217473  0.61178476  0.54832135     0.19790
H2088       H  0.01438500  0.62660252  0.63779835     0.19790
C2089       C  0.99830586  0.63620010  0.40471024    -0.06040
C2090       C  0.98916746  0.60885773  0.40949165    -0.17170
C2091       C  0.98536037  0.58923846  0.38816903     0.11160
C2092       C  0.99571894  0.59402060  0.36117014    -0.05970
C2093       C  0.00500574  0.62119647  0.35657553    -0.17200
C2094       C  0.00460682  0.64229031  0.37651095     0.11190
S2095       S  0.96490483  0.55973996  0.39698808    -0.32170
S2096       S  0.01111158  0.67608208  0.36186258    -0.32170
H2097       H  0.00657353  0.69339055  0.38418909     0.29200
H2098       H  0.95047882  0.55933294  0.37207766     0.29190
H2099       H  0.98256652  0.60295516  0.42982184     0.19790
H2100       H  0.01118229  0.62715156  0.33618416     0.19790
C2101       C  0.99556679  0.64460295  0.45830758    -0.06040
C2102       C  0.01924673  0.63666367  0.47273201    -0.17170
C2103       C  0.02041763  0.63725740  0.50160590     0.11160
C2104       C  0.99751323  0.64663373  0.51692505    -0.05970
C2105       C  0.97240909  0.64662986  0.50273890    -0.17200
C2106       C  0.97105355  0.64491576  0.47399017     0.11190
S2107       S  0.05228704  0.62739402  0.51700386    -0.32170
S2108       S  0.93730831  0.64328341  0.45931020    -0.32170
H2109       H  0.94517958  0.63341640  0.43345424     0.29200
H2110       H  0.04083647  0.61789838  0.54162532     0.29190
H2111       H  0.03779367  0.63250637  0.46142027     0.19790
H2112       H  0.95356716  0.64929765  0.51396701     0.19790
C2113       C  0.07998354  0.88729491  0.48496251    -0.06040
C2114       C  0.08853718  0.89990618  0.50986004    -0.17170
C2115       C  0.10903913  0.92055862  0.51110990     0.11160
C2116       C  0.12344327  0.92909115  0.48709166    -0.05970
C2117       C  0.11291396  0.91851076  0.46220604    -0.17200
C2118       C  0.09123262  0.89946752  0.46084772     0.11190
S2119       S  0.11523959  0.93533820  0.54430326    -0.32170
S2120       S  0.07757229  0.89447251  0.42724482    -0.32170
H2121       H  0.05149106  0.90278801  0.43575718     0.29200
H2122       H  0.10029246  0.95910058  0.53779450     0.29190
H2123       H  0.07908198  0.89377197  0.52897059     0.19790
H2124       H  0.12075319  0.92603526  0.44290159     0.19790
C2125       C  0.97005593  0.87281326  0.48987187    -0.06040
C2126       C  0.98209563  0.86794546  0.46399853    -0.17170
C2127       C  0.01039268  0.86523266  0.45990054     0.11160
C2128       C  0.02895239  0.87027490  0.48241761    -0.05970
C2129       C  0.01681064  0.88196479  0.50606402    -0.17200
C2130       C  0.98832573  0.88324661  0.51002789     0.11190
S2131       S  0.01760115  0.85505218  0.42464743    -0.32170
S2132       S  0.97746021  0.90011409  0.54071226    -0.32170
H2133       H  0.95872359  0.91670948  0.52663325     0.29200
H2134       H  0.04550205  0.85268062  0.42295161     0.29190
H2135       H  0.96897629  0.86425983  0.44652446     0.19790
H2136       H  0.02978414  0.88867434  0.52274522     0.19790
C2137       C  0.62315559  0.01627265  0.56936168    -0.06040
C2138       C  0.60987192  0.99136863  0.57624870    -0.17170
C2139       C  0.58862177  0.98953661  0.59592139     0.11160
C2140       C  0.58012588  0.01298733  0.61124638    -0.05970
C2141       C  0.59123529  0.03812487  0.60230694    -0.17200
C2142       C  0.61152849  0.04053496  0.58195866     0.11190
S2143       S  0.57307425  0.95636885  0.59987003    -0.32170
S2144       S  0.61935892  0.07643793  0.57519147    -0.32170
H2145       H  0.62854820  0.07544896  0.54841492     0.29200
H2146       H  0.54916497  0.96495843  0.58653253     0.29190
H2147       H  0.61629052  0.97261408  0.56643388     0.19790
H2148       H  0.58364175  0.05699332  0.61108322     0.19790
C2149       C  0.62230676  0.01128900  0.40764031    -0.06040
C2150       C  0.61174584  0.03590554  0.39643669    -0.17170
C2151       C  0.58956175  0.03654731  0.37794757     0.11160
C2152       C  0.57893987  0.01188589  0.36617839    -0.05970
C2153       C  0.58838526  0.98735316  0.37851576    -0.17200
C2154       C  0.60822737  0.98689637  0.39960604     0.11190
S2155       S  0.57460548  0.06977545  0.37240751    -0.32170
S2156       S  0.61393979  0.95415890  0.41559450    -0.32170
H2157       H  0.59948666  0.96199639  0.43929338     0.29200
H2158       H  0.55253300  0.06364826  0.38980798     0.29190
H2159       H  0.62014350  0.05542496  0.40263099     0.19790
H2160       H  0.58033422  0.96786847  0.37178201     0.19790
C2161       C  0.63718309  0.01042528  0.45899094    -0.06040
C2162       C  0.63982081  0.98596999  0.47434152    -0.17170
C2163       C  0.63938555  0.98564773  0.50327085     0.11160
C2164       C  0.63786295  0.01094822  0.51818299    -0.05970
C2165       C  0.62921638  0.03386082  0.50289047    -0.17200
C2166       C  0.62839341  0.03394207  0.47395861     0.11190
S2167       S  0.63967454  0.95235637  0.51993549    -0.32170
S2168       S  0.61771530  0.06515622  0.45711195    -0.32170
H2169       H  0.60923714  0.07967436  0.48059341     0.29200
H2170       H  0.64436842  0.93604225  0.49655701     0.29190
H2171       H  0.64348169  0.96688920  0.46370789     0.19790
H2172       H  0.62460968  0.05253274  0.51331531     0.19790
C2173       C  0.87613268  0.09294579  0.49075024    -0.06040
C2174       C  0.88450555  0.10167322  0.46444832    -0.17170
C2175       C  0.90291906  0.12355403  0.45966827     0.11160
C2176       C  0.91804022  0.13546972  0.48229663    -0.05970
C2177       C  0.91325982  0.12285318  0.50800429    -0.17200
C2178       C  0.89199196  0.10372599  0.51291392     0.11190
S2179       S  0.90300957  0.13269182  0.42340569    -0.32170
S2180       S  0.88641677  0.09442928  0.54822369    -0.32170
H2181       H  0.89908406  0.11740337  0.56030690     0.29200
H2182       H  0.92441419  0.15079438  0.42011987     0.29190
H2183       H  0.87536218  0.09202355  0.44668498     0.19790
H2184       H  0.92550332  0.12941182  0.52525890     0.19790
C2185       C  0.91898753  0.88895701  0.49457610    -0.06040
C2186       C  0.91336612  0.90043031  0.46855234    -0.17170
C2187       C  0.89203099  0.91950435  0.46360776     0.11160
C2188       C  0.87668990  0.93102210  0.48585767    -0.05970
C2189       C  0.88574249  0.92318877  0.51219545    -0.17200
C2190       C  0.90473260  0.90192390  0.51719901     0.11190
S2191       S  0.88584590  0.92792880  0.42817547    -0.32170
S2192       S  0.90720338  0.89486410  0.55381481    -0.32170
H2193       H  0.93123334  0.88034007  0.55634231     0.29200
H2194       H  0.89878888  0.90503215  0.41630794     0.29190
H2195       H  0.92505196  0.89302274  0.45123101     0.19790
H2196       H  0.87688484  0.93324883  0.52988048     0.19790
C2197       C  0.86261462  0.98268543  0.48485645    -0.06040
C2198       C  0.86604119  0.99467825  0.51096498    -0.17170
C2199       C  0.86406225  0.02322572  0.51532872     0.11160
C2200       C  0.86160947  0.04149929  0.49240128    -0.05970
C2201       C  0.86604280  0.02963866  0.46638494    -0.17200
C2202       C  0.86532341  0.00102016  0.46201934     0.11190
S2203       S  0.86293494  0.03405665  0.55076614    -0.32170
S2204       S  0.86639033  0.98985285  0.42669077    -0.32170
H2205       H  0.87584890  0.01445887  0.41489561     0.29200
H2206       H  0.87479081  0.01051393  0.56245901     0.29190
H2207       H  0.86668896  0.98131473  0.52866507     0.19790
H2208       H  0.86687040  0.04304877  0.44872369     0.19790
loop_ 
_geom_bond_atom_site_label_1 
_geom_bond_atom_site_label_2 
_geom_bond_distance 
_geom_bond_site_symmetry_2 
_ccdc_geom_bond_type 
N1            N2   1.316       .  A
N1            C5   1.350       .  A
N1           Cu9   2.066       .  S
N2            C3   1.344       .  A
N2           Cu8   2.105       .  S
C3            C4   1.405       .  A
C3            H6   1.080       .  S
C4            C5   1.398       .  A
C4           C49   1.569       .  S
C5            H7   1.081       .  S
Cu8          N11   2.107       .  S
Cu9          N19   2.072       .  S
Cu10         N12   2.061       .  S
Cu10         N18   2.067       .  S
N11          N12   1.318       .  A
N11          C15   1.336       .  A
N12          C13   1.356       .  A
C13          C14   1.394       .  A
C13          H16   1.081       .  S
C14          C15   1.403       .  A
C14         C100   1.553   1_565  S
C15          H17   1.079       .  S
N18          N19   1.325       .  A
N18          C22   1.340       .  A
N19          C20   1.342       .  A
C20          C21   1.385       .  A
C20          H23   1.081       .  S
C21          C22   1.385       .  A
C21         C808   1.479       .  S
C22          H24   1.081       .  S
N25          N26   1.313       .  A
N25          C29   1.347       .  A
N25         Cu33   2.042       .  S
N26          C27   1.339       .  A
N26         Cu32   2.094       .  S
C27          C28   1.404       .  A
C27          H30   1.080       .  S
C28          C29   1.393       .  A
C28          C49   1.536       .  S
C29          H31   1.082       .  S
Cu32         N35   2.095       .  S
Cu33         N43   2.053       .  S
Cu34         N36   2.059       .  S
Cu34         N42   2.066       .  S
N35          N36   1.315       .  A
N35          C39   1.338       .  A
N36          C37   1.351       .  A
C37          C38   1.395       .  A
C37          H40   1.081       .  S
C38          C39   1.403       .  A
C38          C99   1.553   1_565  S
C39          H41   1.080       .  S
N42          N43   1.324       .  A
N42          C46   1.340       .  A
N43          C44   1.337       .  A
C44          C45   1.381       .  A
C44          H47   1.081       .  S
C45          C46   1.385       .  A
C45         C128   1.471       .  S
C46          H48   1.081       .  S
C49        C2188   1.599       .  S
C49        C2197   1.577       .  S
N50          N51   1.314       .  A
N50          C54   1.346       .  A
N50         Cu58   2.042       .  S
N51          C52   1.338       .  A
N51         Cu57   2.093       .  S
C52          C53   1.404       .  A
C52          H55   1.080       .  S
C53          C54   1.393       .  A
C53          C98   1.535       .  S
C54          H56   1.082       .  S
Cu57         N60   2.088       .  S
Cu58         N68   2.056       .  S
Cu59         N61   2.053       .  S
Cu59         N67   2.058       .  S
N60          N61   1.313       .  A
N60          C64   1.347       .  A
N61          C62   1.339       .  A
C62          C63   1.397       .  A
C62          H65   1.082       .  S
C63          C64   1.404       .  A
C63         C100   1.542       .  S
C64          H66   1.079       .  S
N67          N68   1.323       .  A
N67          C71   1.342       .  A
N68          C69   1.335       .  A
C69          C70   1.382       .  A
C69          H72   1.082       .  S
C70          C71   1.382       .  A
C70        C1171   1.469       .  S
C71          H73   1.081       .  S
N74          N75   1.315       .  A
N74          C78   1.348       .  A
N74         Cu82   2.061       .  S
N75          C76   1.344       .  A
N75         Cu81   2.108       .  S
C76          C77   1.407       .  A
C76          H79   1.080       .  S
C77          C78   1.398       .  A
C77          C98   1.570       .  S
C78          H80   1.081       .  S
Cu81         N84   2.109       .  S
Cu82         N92   2.069       .  S
Cu83         N85   2.056       .  S
Cu83         N91   2.060       .  S
N84          N85   1.315       .  A
N84          C88   1.343       .  A
N85          C86   1.347       .  A
C86          C87   1.395       .  A
C86          H89   1.081       .  S
C87          C88   1.405       .  A
C87          C99   1.549       .  S
C88          H90   1.079       .  S
N91          N92   1.323       .  A
N91          C95   1.341       .  A
N92          C93   1.339       .  A
C93          C94   1.385       .  A
C93          H96   1.081       .  S
C94          C95   1.384       .  A
C94        C1479   1.477       .  S
C95          H97   1.081       .  S
C98        C2173   1.596       .  S
C98        C2200   1.575       .  S
C99        C2149   1.590       .  S
C99        C2161   1.573       .  S
C100       C2137   1.593       .  S
C100       C2164   1.578       .  S
C101        C102   1.398       .  A
C101        C106   1.400       .  A
C101        C602   1.470       .  S
C102        C103   1.398       .  A
C102        H107   1.080       .  S
C103        C104   1.397       .  A
C103        C112   1.474       .  S
C104        C105   1.398       .  A
C104        H108   1.083       .  S
C105        C106   1.398       .  A
C105        C141   1.475       .  S
C106        H109   1.079       .  S
C110        C111   1.400       .  A
C110        C115   1.405       .  A
C110       C1294   1.477       .  S
C111        C112   1.397       .  A
C111        H116   1.080       .  S
C112        C113   1.396       .  A
C113        C114   1.398       .  A
C113        H117   1.083       .  S
C114        C115   1.406       .  A
C114        C150   1.480       .  S
C115        H118   1.080       .  S
C119        C120   1.405       .  A
C119        C124   1.397       .  A
C119        C199   1.473       .  S
C120        C121   1.402       .  A
C120        H125   1.079       .  S
C121        C122   1.400       .  A
C121        C148   1.482       .  S
C122        C123   1.400       .  A
C122        H126   1.083       .  S
C123        C124   1.396       .  A
C123        C130   1.476       .  S
C124        H127   1.079       .  S
C128        C129   1.400       .  A
C128        C133   1.397       .  A
C129        C130   1.401       .  A
C129        H134   1.080       .  S
C130        C131   1.396       .  A
C131        C132   1.397       .  A
C131        H135   1.082       .  S
C132        C133   1.399       .  A
C132        C139   1.473       .  S
C133        H136   1.079       .  S
C137        C138   1.397       .  A
C137        C142   1.401       .  A
C137        C275   1.470       .  S
C138        C139   1.397       .  A
C138        H143   1.079       .  S
C139        C140   1.397       .  A
C140        C141   1.397       .  A
C140        H144   1.083       .  S
C141        C142   1.399       .  A
C142        H145   1.080       .  S
C146        C147   1.401       .  A
C146        C151   1.401       .  A
C146       C1399   1.471       .  S
C147        C148   1.402       .  A
C147        H152   1.080       .  S
C148        C149   1.402       .  A
C149        C150   1.401       .  A
C149        H153   1.083       .  S
C150        C151   1.396       .  A
C151        H154   1.081       .  S
N155        N156   1.313       .  A
N155        C159   1.340       .  A
N155       Cu163   2.065       .  S
N156        C157   1.348       .  A
N156       Cu162   2.089       .  S
C157        C158   1.403       .  A
C157        H160   1.081       .  S
C158        C159   1.400       .  A
C158        C203   1.536       .  S
C159        H161   1.082       .  S
Cu162       N165   2.092       .  S
Cu163       N173   2.069       .  S
Cu164       N166   2.030       .  S
Cu164       N172   2.041       .  S
N165        N166   1.314       .  A
N165        C169   1.334       .  A
N166        C167   1.346       .  A
C167        C168   1.393       .  A
C167        H170   1.081       .  S
C168        C169   1.397       .  A
C168        C254   1.551       .  S
C169        H171   1.075       .  S
N172        N173   1.322       .  A
N172        C176   1.335       .  A
N173        C174   1.341       .  A
C174        C175   1.388       .  A
C174        H177   1.081       .  S
C175        C176   1.381       .  A
C175        C772   1.473       .  S
C176        H178   1.081       .  S
N179        N180   1.314       .  A
N179        C183   1.349       .  A
N179       Cu187   2.035       .  S
N180        C181   1.336       .  A
N180       Cu186   2.098       .  S
C181        C182   1.402       .  A
C181        H184   1.074       .  S
C182        C183   1.394       .  A
C182        C253   1.553       .  S
C183        H185   1.081       .  S
Cu186       N189   2.099       .  S
Cu187       N197   2.041       .  S
Cu188       N190   2.073       .  S
Cu188       N196   2.079       .  S
N189        N190   1.317       .  A
N189        C193   1.336       .  A
N190        C191   1.356       .  A
C191        C192   1.399       .  A
C191        H194   1.081       .  S
C192        C193   1.403       .  A
C192        C203   1.570       .  S
C193        H195   1.079       .  S
N196        N197   1.324       .  A
N196        C200   1.340       .  A
N197        C198   1.336       .  A
C198        C199   1.378       .  A
C198        H201   1.081       .  S
C199        C200   1.388       .  A
C200        H202   1.081       .  S
C203       C2125   1.594       .  S
C203       C2185   1.596       .  S
N204        N205   1.315       .  A
N204        C208   1.349       .  A
N204       Cu212   2.036       .  S
N205        C206   1.333       .  A
N205       Cu211   2.107       .  S
C206        C207   1.403       .  A
C206        H209   1.068       .  S
C207        C208   1.393       .  A
C207        C254   1.561   1_455  S
C208        H210   1.081       .  S
Cu211       N214   2.104       .  S
Cu212       N222   2.040       .  S
Cu213       N215   2.073       .  S
Cu213       N221   2.076       .  S
N214        N215   1.315       .  A
N214        C218   1.346       .  A
N215        C216   1.346       .  A
C216        C217   1.400       .  A
C216        H219   1.081       .  S
C217        C218   1.405       .  A
C217        C252   1.559       .  S
C218        H220   1.081       .  S
N221        N222   1.323       .  A
N221        C225   1.340       .  A
N222        C223   1.338       .  A
C223        C224   1.379       .  A
C223        H226   1.081       .  S
C224        C225   1.387       .  A
C224        C609   1.473       .  S
C225        H227   1.081       .  S
N228        N229   1.314       .  A
N228        C232   1.351       .  A
N228       Cu236   2.054       .  S
N229        C230   1.333       .  A
N229       Cu235   2.091       .  S
C230        C231   1.399       .  A
C230        H233   1.070       .  S
C231        C232   1.397       .  A
C231        C253   1.562   1_455  S
C232        H234   1.080       .  S
Cu235       N238   2.092       .  S
Cu236       N246   2.059       .  S
Cu237       N239   2.061       .  S
Cu237       N245   2.068       .  S
N238        N239   1.316       .  A
N238        C242   1.337       .  A
N239        C240   1.352       .  A
C240        C241   1.396       .  A
C240        H243   1.081       .  S
C241        C242   1.402       .  A
C241        C252   1.541       .  S
C242        H244   1.080       .  S
N245        N246   1.325       .  A
N245        C249   1.339       .  A
N246        C247   1.340       .  A
C247        C248   1.382       .  A
C247        H250   1.080       .  S
C248        C249   1.385       .  A
C248        C355   1.474       .  S
C249        H251   1.081       .  S
C252       C2113   1.602       .  S
C252       C2128   1.585       .  S
C253       C2089   1.594       .  S
C253       C2101   1.572       .  S
C254       C2077   1.586       .  S
C254       C2104   1.571       .  S
N255        N256   1.314       .  A
N255        C259   1.347       .  A
N255       Cu263   2.053       .  S
N256        C257   1.340       .  A
N256       Cu262   2.092       .  S
C257        C258   1.402       .  A
C257        H260   1.080       .  S
C258        C259   1.395       .  A
C258        C354   1.547   1_565  S
C259        H261   1.081       .  S
Cu262       N265   2.093       .  S
Cu263       N273   2.062       .  S
Cu264       N266   2.036       .  S
Cu264       N272   2.042       .  S
N265        N266   1.314       .  A
N265        C269   1.334       .  A
N266        C267   1.348       .  A
C267        C268   1.393       .  A
C267        H270   1.080       .  S
C268        C269   1.399       .  A
C268        C303   1.551       .  S
C269        H271   1.073       .  S
N272        N273   1.323       .  A
N272        C276   1.336       .  A
N273        C274   1.338       .  A
C274        C275   1.385       .  A
C274        H277   1.080       .  S
C275        C276   1.381       .  A
C276        H278   1.081       .  S
N279        N280   1.314       .  A
N279        C283   1.348       .  A
N279       Cu287   2.032       .  S
N280        C281   1.331       .  A
N280       Cu286   2.088       .  S
C281        C282   1.398       .  A
C281        H284   1.071       .  S
C282        C283   1.392       .  A
C282        C303   1.552       .  S
C283        H285   1.081       .  S
Cu286       N289   2.087       .  S
Cu287       N297   2.038       .  S
Cu288       N290   2.071       .  S
Cu288       N296   2.076       .  S
N289        N290   1.315       .  A
N289        C293   1.343       .  A
N290        C291   1.347       .  A
C291        C292   1.398       .  A
C291        H294   1.082       .  S
C292        C293   1.401       .  A
C292        C353   1.549   1_565  S
C293        H295   1.081       .  S
N296        N297   1.323       .  A
N296        C300   1.341       .  A
N297        C298   1.336       .  A
C298        C299   1.379       .  A
C298        H301   1.081       .  S
C299        C300   1.388       .  A
C299        C391   1.474       .  S
C300        H302   1.081       .  S
C303       C2053   1.588       .  S
C303       C2065   1.567       .  S
N304        N305   1.315       .  A
N304        C308   1.347       .  A
N304       Cu312   2.059       .  S
N305        C306   1.343       .  A
N305       Cu311   2.102       .  S
C306        C307   1.405       .  A
C306        H309   1.080       .  S
C307        C308   1.396       .  A
C307        C354   1.553       .  S
C308        H310   1.081       .  S
Cu311       N314   2.103       .  S
Cu312       N322   2.068       .  S
Cu313       N315   2.047       .  S
Cu313       N321   2.053       .  S
N314        N315   1.315       .  A
N314        C318   1.336       .  A
N315        C316   1.350       .  A
C316        C317   1.396       .  A
C316        H319   1.079       .  S
C317        C318   1.404       .  A
C317        C352   1.562       .  S
C318        H320   1.076       .  S
N321        N322   1.323       .  A
N321        C325   1.338       .  A
N322        C323   1.340       .  A
C323        C324   1.386       .  A
C323        H326   1.081       .  S
C324        C325   1.383       .  A
C324       C1497   1.476       .  S
C325        H327   1.081       .  S
N328        N329   1.316       .  A
N328        C332   1.349       .  A
N328       Cu336   2.063       .  S
N329        C330   1.342       .  A
N329       Cu335   2.102       .  S
C330        C331   1.404       .  A
C330        H333   1.081       .  S
C331        C332   1.396       .  A
C331        C353   1.550       .  S
C332        H334   1.081       .  S
Cu335       N338   2.102       .  S
Cu336       N346   2.069       .  S
Cu337       N339   2.044       .  S
Cu337       N345   2.050       .  S
N338        N339   1.315       .  A
N338        C342   1.336       .  A
N339        C340   1.350       .  A
C340        C341   1.395       .  A
C340        H343   1.080       .  S
C341        C342   1.403       .  A
C341        C352   1.557       .  S
C342        H344   1.075       .  S
N345        N346   1.323       .  A
N345        C349   1.337       .  A
N346        C347   1.341       .  A
C347        C348   1.386       .  A
C347        H350   1.081       .  S
C348        C349   1.382       .  A
C348       C1361   1.474       .  S
C349        H351   1.081       .  S
C352       C2041   1.599       .  S
C352       C2068   1.560       .  S
C353       C2017   1.589       .  S
C353       C2029   1.578       .  S
C354       C2032   1.577       .  S
C354       C2152   1.591       .  S
C355        C356   1.395       .  A
C355        C360   1.399       .  A
C356        C357   1.402       .  A
C356        H361   1.079       .  S
C357        C358   1.399       .  A
C357        C402   1.481       .  S
C358        C359   1.402       .  A
C358        H362   1.081       .  S
C359        C360   1.405       .  A
C359        C375   1.483       .  S
C360        H363   1.078       .  S
C364        C365   1.394       .  A
C364        C369   1.395       .  A
C364        C886   1.473       .  S
C365        C366   1.402       .  A
C365        H370   1.079       .  S
C366        C367   1.405       .  A
C366        C377   1.483       .  S
C367        C368   1.405       .  A
C367        H371   1.080       .  S
C368        C369   1.404       .  A
C368        C384   1.489       .  S
C369        H372   1.076       .  S
C373        C374   1.397       .  A
C373        C378   1.398       .  A
C373       C1448   1.472       .  S
C374        C375   1.402       .  A
C374        H379   1.079       .  S
C375        C376   1.405       .  A
C376        C377   1.401       .  A
C376        H380   1.081       .  S
C377        C378   1.400       .  A
C378        H381   1.078       .  S
C382        C383   1.396       .  A
C382        C387   1.397       .  A
C382        C578   1.468       .  S
C383        C384   1.401       .  A
C383        H388   1.080       .  S
C384        C385   1.404       .  A
C385        C386   1.406       .  A
C385        H389   1.077       .  S
C386        C387   1.400       .  A
C386        C393   1.484       .  S
C387        H390   1.081       .  S
C391        C392   1.399       .  A
C391        C396   1.393       .  A
C392        C393   1.404       .  A
C392        H397   1.078       .  S
C393        C394   1.402       .  A
C394        C395   1.401       .  A
C394        H398   1.079       .  S
C395        C396   1.403       .  A
C395        C404   1.484       .  S
C396        H399   1.078       .  S
C400        C401   1.392       .  A
C400        C405   1.392       .  A
C400        C504   1.458       .  S
C401        C402   1.398       .  A
C401        H406   1.082       .  S
C402        C403   1.405       .  A
C403        C404   1.405       .  A
C403        H407   1.077       .  S
C404        C405   1.399       .  A
C405        H408   1.081       .  S
N409        N410   1.315       .  A
N409        C413   1.353       .  A
N409       Cu417   2.053       .  S
N410        C411   1.332       .  A
N410       Cu416   2.074       .  S
C411        C412   1.398       .  A
C411        H414   1.080       .  S
C412        C413   1.393       .  A
C412        C458   1.532       .  S
C413        H415   1.081       .  S
Cu416       N419   2.074       .  S
Cu417       N427   2.061       .  S
Cu418       N420   2.035       .  S
Cu418       N426   2.047       .  S
N419        N420   1.314       .  A
N419        C423   1.330       .  A
N420        C421   1.351       .  A
C421        C422   1.391       .  A
C421        H424   1.081       .  S
C422        C423   1.400       .  A
C422        C459   1.536       .  S
C423        H425   1.079       .  S
N426        N427   1.325       .  A
N426        C430   1.334       .  A
N427        C428   1.338       .  A
C428        C429   1.384       .  A
C428        H431   1.080       .  S
C429        C430   1.380       .  A
C429        C962   1.468       .  S
C430        H432   1.081       .  S
N433        N434   1.315       .  A
N433        C437   1.348       .  A
N433       Cu441   2.074       .  S
N434        C435   1.346       .  A
N434       Cu440   2.107       .  S
C435        C436   1.405       .  A
C435        H438   1.078       .  S
C436        C437   1.400       .  A
C436        C458   1.563       .  S
C437        H439   1.081       .  S
Cu440       N443   2.109       .  S
Cu441       N451   2.078       .  S
Cu442       N444   2.045       .  S
Cu442       N450   2.055       .  S
N443        N444   1.316       .  A
N443        C447   1.337       .  A
N444        C445   1.352       .  A
C445        C446   1.392       .  A
C445        H448   1.081       .  S
C446        C447   1.406       .  A
C446        C457   1.558       .  S
C447        H449   1.079       .  S
N450        N451   1.324       .  A
N450        C454   1.337       .  A
N451        C452   1.343       .  A
C452        C453   1.388       .  A
C452        H455   1.081       .  S
C453        C454   1.382       .  A
C453       C1370   1.477       .  S
C454        H456   1.081       .  S
C457        C497   1.548   1_545  S
C457       C2005   1.571       .  S
C457       C2020   1.591       .  S
C458       C1981   1.596       .  S
C458       C1993   1.576       .  S
C459        C473   1.564   1_545  S
C459       C1969   1.597       .  S
C459       C2008   1.573       .  S
N460        N461   1.316       .  A
N460        C464   1.353       .  A
N460       Cu468   2.041       .  S
N461        C462   1.337       .  A
N461       Cu467   2.117       .  S
C462        C463   1.407       .  A
C462        H465   1.079       .  S
C463        C464   1.391       .  A
C463        C508   1.559       .  S
C464        H466   1.081       .  S
Cu467       N470   2.114       .  S
Cu468       N478   2.052       .  S
Cu469       N471   2.066       .  S
Cu469       N477   2.070       .  S
N470        N471   1.315       .  A
N470        C474   1.347       .  A
N471        C472   1.347       .  A
C472        C473   1.399       .  A
C472        H475   1.082       .  S
C473        C474   1.406       .  A
C474        H476   1.077       .  S
N477        N478   1.324       .  A
N477        C481   1.342       .  A
N478        C479   1.335       .  A
C479        C480   1.381       .  A
C479        H482   1.081       .  S
C480        C481   1.386       .  A
C480        C654   1.473       .  S
C481        H483   1.081       .  S
N484        N485   1.313       .  A
N484        C488   1.341       .  A
N484       Cu492   2.036       .  S
N485        C486   1.347       .  A
N485       Cu491   2.117       .  S
C486        C487   1.409       .  A
C486        H489   1.077       .  S
C487        C488   1.395       .  A
C487        C508   1.550       .  S
C488        H490   1.081       .  S
Cu491       N494   2.117       .  S
Cu492       N502   2.042       .  S
Cu493       N495   2.039       .  S
Cu493       N501   2.046       .  S
N494        N495   1.314       .  A
N494        C498   1.345       .  A
N495        C496   1.342       .  A
C496        C497   1.394       .  A
C496        H499   1.081       .  S
C497        C498   1.407       .  A
C498        H500   1.077       .  S
N501        N502   1.323       .  A
N501        C505   1.337       .  A
N502        C503   1.337       .  A
C503        C504   1.377       .  A
C503        H506   1.082       .  S
C504        C505   1.378       .  A
C505        H507   1.082       .  S
C508       C1996   1.572       .  S
C508       C2116   1.595       .  S
N509        N510   1.314       .  A
N509        C513   1.348       .  A
N509       Cu517   2.035       .  S
N510        C511   1.333       .  A
N510       Cu516   2.093       .  S
C511        C512   1.401       .  A
C511        H514   1.075       .  S
C512        C513   1.394       .  A
C512        C557   1.555       .  S
C513        H515   1.080       .  S
Cu516       N519   2.089       .  S
Cu517       N527   2.042       .  S
Cu518       N520   2.077       .  S
Cu518       N526   2.080       .  S
N519        N520   1.315       .  A
N519        C523   1.347       .  A
N520        C521   1.343       .  A
C521        C522   1.402       .  A
C521        H524   1.081       .  S
C522        C523   1.403       .  A
C522        C607   1.563       .  S
C523        H525   1.080       .  S
N526        N527   1.322       .  A
N526        C530   1.343       .  A
N527        C528   1.336       .  A
C528        C529   1.381       .  A
C528        H531   1.080       .  S
C529        C530   1.390       .  A
C529        C790   1.478       .  S
C530        H532   1.081       .  S
N533        N534   1.314       .  A
N533        C537   1.348       .  A
N533       Cu541   2.038       .  S
N534        C535   1.334       .  A
N534       Cu540   2.097       .  S
C535        C536   1.401       .  A
C535        H538   1.075       .  S
C536        C537   1.394       .  A
C536        C557   1.558       .  S
C537        H539   1.080       .  S
Cu540       N543   2.093       .  S
Cu541       N551   2.047       .  S
Cu542       N544   2.066       .  S
Cu542       N550   2.070       .  S
N543        N544   1.314       .  A
N543        C547   1.351       .  A
N544        C545   1.339       .  A
C545        C546   1.400       .  A
C545        H548   1.082       .  S
C546        C547   1.404       .  A
C546        C608   1.540       .  S
C547        H549   1.080       .  S
N550        N551   1.322       .  A
N550        C554   1.343       .  A
N551        C552   1.335       .  A
C552        C553   1.383       .  A
C552        H555   1.080       .  S
C553        C554   1.388       .  A
C553        C636   1.477       .  S
C554        H556   1.081       .  S
C557       C1945   1.592       .  S
C557       C1957   1.555       .  S
N558        N559   1.314       .  A
N558        C562   1.349       .  A
N558       Cu566   2.044       .  S
N559        C560   1.339       .  A
N559       Cu565   2.104       .  S
C560        C561   1.405       .  A
C560        H563   1.077       .  S
C561        C562   1.395       .  A
C561        C606   1.559       .  S
C562        H564   1.079       .  S
Cu565       N568   2.105       .  S
Cu566       N576   2.049       .  S
Cu567       N569   2.063       .  S
Cu567       N575   2.070       .  S
N568        N569   1.317       .  A
N568        C572   1.334       .  A
N569        C570   1.357       .  A
C570        C571   1.396       .  A
C570        H573   1.081       .  S
C571        C572   1.404       .  A
C571        C608   1.566   1_554  S
C572        H574   1.079   1_554  S
N575        N576   1.325       .  A
N575        C579   1.340       .  A
N576        C577   1.338       .  A
C577        C578   1.377       .  A
C577        H580   1.081       .  S
C578        C579   1.383       .  A
C579        H581   1.081       .  S
N582        N583   1.313       .  A
N582        C586   1.350       .  A
N582       Cu590   2.044       .  S
N583        C584   1.333       .  A
N583       Cu589   2.082       .  S
C584        C585   1.400       .  A
C584        H587   1.075       .  S
C585        C586   1.396       .  A
C585        C606   1.555       .  S
C586        H588   1.080       .  S
Cu589       N592   2.083       .  S
Cu590       N600   2.051       .  S
Cu591       N593   2.056       .  S
Cu591       N599   2.064       .  S
N592        N593   1.316       .  A
N592        C596   1.332       .  A
N593        C594   1.354       .  A
C594        C595   1.394       .  A
C594        H597   1.081       .  S
C595        C596   1.399       .  A
C595        C607   1.535   1_554  S
C596        H598   1.080       .  S
N599        N600   1.325       .  A
N599        C603   1.338       .  A
N600        C601   1.337       .  A
C601        C602   1.381       .  A
C601        H604   1.080       .  S
C602        C603   1.384       .  A
C603        H605   1.081       .  S
C606       C1960   1.557       .  S
C606       C2056   1.595       .  S
C607       C1921   1.604       .  S
C607       C1933   1.579       .  S
C608       C1909   1.595       .  S
C608       C1936   1.591       .  S
C609        C610   1.397       .  A
C609        C614   1.404       .  A
C610        C611   1.398       .  A
C610        H615   1.081       .  S
C611        C612   1.398       .  A
C611        C656   1.477       .  S
C612        C613   1.403       .  A
C612        H616   1.082       .  S
C613        C614   1.404       .  A
C613        C620   1.486       .  S
C614        H617   1.078       .  S
C618        C619   1.403       .  A
C618        C623   1.397       .  A
C618       C1140   1.476       .  S
C619        C620   1.405       .  A
C619        H624   1.080       .  S
C620        C621   1.403       .  A
C621        C622   1.398       .  A
C621        H625   1.082       .  S
C622        C623   1.401       .  A
C622        C647   1.481       .  S
C623        H626   1.079       .  S
C627        C628   1.399       .  A
C627        C632   1.399       .  A
C627        C707   1.471       .  S
C628        C629   1.399       .  A
C628        H633   1.079       .  S
C629        C630   1.399       .  A
C629        C638   1.477       .  S
C630        C631   1.400       .  A
C630        H634   1.082       .  S
C631        C632   1.399       .  A
C631        C658   1.480       .  S
C632        H635   1.079       .  S
C636        C637   1.401       .  A
C636        C641   1.402       .  A
C637        C638   1.398       .  A
C637        H642   1.079       .  S
C638        C639   1.396       .  A
C639        C640   1.398       .  A
C639        H643   1.082       .  S
C640        C641   1.405       .  A
C640        C649   1.479       .  S
C641        H644   1.079       .  S
C645        C646   1.396       .  A
C645        C650   1.399       .  A
C645        C837   1.468       .  S
C646        C647   1.398       .  A
C646        H651   1.078       .  S
C647        C648   1.401       .  A
C648        C649   1.404       .  A
C648        H652   1.082       .  S
C649        C650   1.398       .  A
C650        H653   1.079       .  S
C654        C655   1.399       .  A
C654        C659   1.399       .  A
C655        C656   1.398       .  A
C655        H660   1.080       .  S
C656        C657   1.398       .  A
C657        C658   1.401       .  A
C657        H661   1.082       .  S
C658        C659   1.404       .  A
C659        H662   1.079       .  S
N663        N664   1.315       .  A
N663        C667   1.352       .  A
N663       Cu671   2.056       .  S
N664        C665   1.335       .  A
N664       Cu670   2.088       .  S
C665        C666   1.400       .  A
C665        H668   1.079       .  S
C666        C667   1.395       .  A
C666        C762   1.552   1_565  S
C667        H669   1.081       .  S
Cu670       N673   2.088       .  S
Cu671       N681   2.065       .  S
Cu672       N674   2.052       .  S
Cu672       N680   2.058       .  S
N673        N674   1.314       .  A
N673        C677   1.335       .  A
N674        C675   1.350       .  A
C675        C676   1.396       .  A
C675        H678   1.080       .  S
C676        C677   1.398       .  A
C676        C711   1.557       .  S
C677        H679   1.073       .  S
N680        N681   1.324       .  A
N680        C684   1.339       .  A
N681        C682   1.338       .  A
C682        C683   1.385       .  A
C682        H685   1.080       .  S
C683        C684   1.383       .  A
C683        C799   1.474       .  S
C684        H686   1.081       .  S
N687        N688   1.313       .  A
N687        C691   1.348       .  A
N687       Cu695   2.048       .  S
N688        C689   1.332       .  A
N688       Cu694   2.067       .  S
C689        C690   1.395       .  A
C689        H692   1.074       .  S
C690        C691   1.397       .  A
C690        C711   1.548       .  S
C691        H693   1.080       .  S
Cu694       N697   2.067       .  S
Cu695       N705   2.055       .  S
Cu696       N698   2.045       .  S
Cu696       N704   2.057       .  S
N697        N698   1.314       .  A
N697        C701   1.333       .  A
N698        C699   1.348       .  A
C699        C700   1.394       .  A
C699        H702   1.081       .  S
C700        C701   1.399       .  A
C700        C761   1.536   1_565  S
C701        H703   1.080       .  S
N704        N705   1.323       .  A
N704        C708   1.337       .  A
N705        C706   1.338       .  A
C706        C707   1.383       .  A
C706        H709   1.081       .  S
C707        C708   1.383       .  A
C708        H710   1.081       .  S
C711       C1897   1.570       .  S
C711       C1948   1.584       .  S
N712        N713   1.313       .  A
N712        C716   1.342       .  A
N712       Cu720   2.055       .  S
N713        C714   1.346       .  A
N713       Cu719   2.102       .  S
C714        C715   1.406       .  A
C714        H717   1.080       .  S
C715        C716   1.398       .  A
C715        C762   1.553       .  S
C716        H718   1.081       .  S
Cu719       N722   2.104       .  S
Cu720       N730   2.062       .  S
Cu721       N723   2.043       .  S
Cu721       N729   2.048       .  S
N722        N723   1.315       .  A
N722        C726   1.337       .  A
N723        C724   1.347       .  A
C724        C725   1.395       .  A
C724        H727   1.078       .  S
C725        C726   1.403       .  A
C725        C760   1.558       .  S
C726        H728   1.077       .  S
N729        N730   1.322       .  A
N729        C733   1.338       .  A
N730        C731   1.339       .  A
C731        C732   1.386       .  A
C731        H734   1.081       .  S
C732        C733   1.383       .  A
C732       C1180   1.474       .  S
C733        H735   1.080       .  S
N736        N737   1.317       .  A
N736        C740   1.350       .  A
N736       Cu744   2.080       .  S
N737        C738   1.346       .  A
N737       Cu743   2.114       .  S
C738        C739   1.406       .  A
C738        H741   1.080       .  S
C739        C740   1.400       .  A
C739        C761   1.564       .  S
C740        H742   1.081       .  S
Cu743       N746   2.115       .  S
Cu744       N754   2.084       .  S
Cu745       N747   2.034       .  S
Cu745       N753   2.040       .  S
N746        N747   1.315       .  A
N746        C750   1.337       .  A
N747        C748   1.349       .  A
C748        C749   1.393       .  A
C748        H751   1.080       .  S
C749        C750   1.406       .  A
C749        C760   1.563       .  S
C750        H752   1.075       .  S
N753        N754   1.323       .  A
N753        C757   1.337       .  A
N754        C755   1.343       .  A
C755        C756   1.390       .  A
C755        H758   1.081       .  S
C756        C757   1.379       .  A
C756        C917   1.477       .  S
C757        H759   1.080       .  S
C760       C1885   1.603       .  S
C760       C1900   1.560       .  S
C761       C1873   1.581       .  S
C761       C1972   1.595       .  S
C762       C1876   1.576       .  S
C762       C2140   1.589       .  S
C763        C764   1.402       .  A
C763        C768   1.400       .  A
C763       C1091   1.477       .  S
C764        C765   1.403       .  A
C764        H769   1.079       .  S
C765        C766   1.400       .  A
C765        C774   1.484       .  S
C766        C767   1.402       .  A
C766        H770   1.082       .  S
C767        C768   1.401       .  A
C767        C785   1.483       .  S
C768        H771   1.079       .  S
C772        C773   1.401       .  A
C772        C777   1.398       .  A
C773        C774   1.399       .  A
C773        H778   1.079       .  S
C774        C775   1.401       .  A
C775        C776   1.403       .  A
C775        H779   1.082       .  S
C776        C777   1.400       .  A
C776        C810   1.481       .  S
C777        H780   1.079       .  S
C781        C782   1.398       .  A
C781        C786   1.399       .  A
C781       C1245   1.469       .  S
C782        C783   1.399       .  A
C782        H787   1.081       .  S
C783        C784   1.401       .  A
C783        C792   1.480       .  S
C784        C785   1.402       .  A
C784        H788   1.082       .  S
C785        C786   1.403       .  A
C786        H789   1.079       .  S
C790        C791   1.399       .  A
C790        C795   1.403       .  A
C791        C792   1.402       .  A
C791        H796   1.079       .  S
C792        C793   1.401       .  A
C793        C794   1.400       .  A
C793        H797   1.082       .  S
C794        C795   1.402       .  A
C794        C803   1.486       .  S
C795        H798   1.078       .  S
C799        C800   1.398       .  A
C799        C804   1.400       .  A
C800        C801   1.399       .  A
C800        H805   1.078       .  S
C801        C802   1.403       .  A
C801        C812   1.484       .  S
C802        C803   1.403       .  A
C802        H806   1.081       .  S
C803        C804   1.402       .  A
C804        H807   1.079       .  S
C808        C809   1.401       .  A
C808        C813   1.401       .  A
C809        C810   1.403       .  A
C809        H814   1.079       .  S
C810        C811   1.400       .  A
C811        C812   1.398       .  A
C811        H815   1.082       .  S
C812        C813   1.403       .  A
C813        H816   1.078       .  S
N817        N818   1.318       .  A
N817        C821   1.352       .  A
N817       Cu825   2.046       .  S
N818        C819   1.336       .  A
N818       Cu824   2.110       .  S
C819        C820   1.404       .  A
C819        H822   1.080       .  S
C820        C821   1.389       .  A
C820        C865   1.540       .  S
C821        H823   1.081       .  S
Cu824       N827   2.105       .  S
Cu825       N835   2.052       .  S
Cu826       N828   2.035       .  S
Cu826       N834   2.038       .  S
N827        N828   1.312       .  A
N827        C831   1.346       .  A
N828        C829   1.339       .  A
C829        C830   1.399       .  A
C829        H832   1.082       .  S
C830        C831   1.412       .  A
C830        C916   1.562       .  S
C831        H833   1.074       .  S
N834        N835   1.321       .  A
N834        C838   1.336       .  A
N835        C836   1.337       .  A
C836        C837   1.385       .  A
C836        H839   1.080       .  S
C837        C838   1.380       .  A
C838        H840   1.081       .  S
N841        N842   1.315       .  A
N841        C845   1.340       .  A
N841       Cu849   2.043       .  S
N842        C843   1.348       .  A
N842       Cu848   2.108       .  S
C843        C844   1.409       .  A
C843        H846   1.082       .  S
C844        C845   1.395       .  A
C844        C865   1.563       .  S
C845        H847   1.082       .  S
Cu848       N851   2.112       .  S
Cu849       N859   2.045       .  S
Cu850       N852   2.040       .  S
Cu850       N858   2.044       .  S
N851        N852   1.315       .  A
N851        C855   1.329       .  A
N852        C853   1.352       .  A
C853        C854   1.397       .  A
C853        H856   1.076       .  S
C854        C855   1.412       .  A
C854        C915   1.573       .  S
C855        H857   1.077       .  S
N858        N859   1.321       .  A
N858        C862   1.336       .  A
N859        C860   1.338       .  A
C860        C861   1.381       .  A
C860        H863   1.081       .  S
C861        C862   1.382       .  A
C861        C926   1.466       .  S
C862        H864   1.081       .  S
C865       C1849   1.605       .  S
C865       C1861   1.572       .  S
N866        N867   1.318       .  A
N866        C870   1.349       .  A
N866       Cu874   2.048       .  S
N867        C868   1.343       .  A
N867       Cu873   2.126       .  S
C868        C869   1.411       .  A
C868        H871   1.081       .  S
C869        C870   1.391       .  A
C869        C914   1.559       .  S
C870        H872   1.082       .  S
Cu873       N876   2.125       .  S
Cu874       N884   2.051       .  S
Cu875       N877   2.047       .  S
Cu875       N883   2.049       .  S
N876        N877   1.317       .  A
N876        C880   1.339   1_554  A
N877        C878   1.350       .  A
C878        C879   1.395       .  A
C878        H881   1.074       .  S
C879        C880   1.417   1_554  A
C879        C916   1.572   1_554  S
C880        H882   1.074       .  S
N883        N884   1.321       .  A
N883        C887   1.338       .  A
N884        C885   1.339       .  A
C885        C886   1.383       .  A
C885        H888   1.081       .  S
C886        C887   1.384       .  A
C887        H889   1.080       .  S
N890        N891   1.313       .  A
N890        C894   1.346       .  A
N890       Cu898   2.046       .  S
N891        C892   1.347       .  A
N891       Cu897   2.120       .  S
C892        C893   1.410       .  A
C892        H895   1.079       .  S
C893        C894   1.396       .  A
C893        C914   1.559       .  S
C894        H896   1.078       .  S
Cu897       N900   2.119       .  S
Cu898       N908   2.055       .  S
Cu899       N901   2.059       .  S
Cu899       N907   2.067       .  S
N900        N901   1.314       .  A
N900        C904   1.341       .  A
N901        C902   1.348       .  A
C902        C903   1.402       .  A
C902        H905   1.082       .  S
C903        C904   1.404       .  A
C903        C915   1.575   1_554  S
C904        H906   1.070       .  S
N907        N908   1.324       .  A
N907        C911   1.342       .  A
N908        C909   1.336       .  A
C909        C910   1.382       .  A
C909        H912   1.081       .  S
C910        C911   1.385       .  A
C910       C1343   1.474       .  S
C911        H913   1.081       .  S
C914       C1840   1.600       .  S
C914       C1864   1.577       .  S
C915       C1813   1.609       .  S
C915       C1825   1.610       .  S
C916       C1828   1.577       .  S
C916       C1912   1.603       .  S
C917        C918   1.399       .  A
C917        C922   1.406       .  A
C918        C919   1.400       .  A
C918        H923   1.080       .  S
C919        C920   1.396       .  A
C919        C964   1.474       .  S
C920        C921   1.398       .  A
C920        H924   1.082       .  S
C921        C922   1.403       .  A
C921        C937   1.483       .  S
C922        H925   1.079       .  S
C926        C927   1.396       .  A
C926        C931   1.397       .  A
C927        C928   1.398       .  A
C927        H932   1.080       .  S
C928        C929   1.399       .  A
C928        C939   1.479       .  S
C929        C930   1.403       .  A
C929        H933   1.082       .  S
C930        C931   1.398       .  A
C930        C946   1.476       .  S
C931        H934   1.079       .  S
C935        C936   1.403       .  A
C935        C940   1.396       .  A
C935       C1015   1.473       .  S
C936        C937   1.402       .  A
C936        H941   1.079       .  S
C937        C938   1.403       .  A
C938        C939   1.399       .  A
C938        H942   1.082       .  S
C939        C940   1.399       .  A
C940        H943   1.078       .  S
C944        C945   1.401       .  A
C944        C949   1.403       .  A
C944       C1164   1.476       .  S
C945        C946   1.403       .  A
C945        H950   1.080       .  S
C946        C947   1.397       .  A
C947        C948   1.395       .  A
C947        H951   1.083       .  S
C948        C949   1.398       .  A
C948        C955   1.474       .  S
C949        H952   1.079       .  S
C953        C954   1.401       .  A
C953        C958   1.400       .  A
C953       C1553   1.473       .  S
C954        C955   1.398       .  A
C954        H959   1.080       .  S
C955        C956   1.397       .  A
C956        C957   1.396       .  A
C956        H960   1.083       .  S
C957        C958   1.400       .  A
C957        C966   1.474       .  S
C958        H961   1.079       .  S
C962        C963   1.398       .  A
C962        C967   1.397       .  A
C963        C964   1.396       .  A
C963        H968   1.080       .  S
C964        C965   1.399       .  A
C965        C966   1.399       .  A
C965        H969   1.083       .  S
C966        C967   1.398       .  A
C967        H970   1.079       .  S
N971        N972   1.314       .  A
N971        C975   1.343       .  A
N971       Cu979   2.062       .  S
N972        C973   1.345       .  A
N972       Cu978   2.091       .  S
C973        C974   1.404       .  A
C973        H976   1.081       .  S
C974        C975   1.398       .  A
C974       C1070   1.541       .  S
C975        H977   1.082       .  S
Cu978       N981   2.092       .  S
Cu979       N989   2.067       .  S
Cu980       N982   2.028       .  S
Cu980       N988   2.035       .  S
N981        N982   1.314       .  A
N981        C985   1.331       .  A
N982        C983   1.348       .  A
C983        C984   1.392       .  A
C983        H986   1.081       .  S
C984        C985   1.398       .  A
C984       C1019   1.552       .  S
C985        H987   1.071       .  S
N988        N989   1.322       .  A
N988        C992   1.335       .  A
N989        C990   1.340       .  A
C990        C991   1.387       .  A
C990        H993   1.081       .  S
C991        C992   1.379       .  A
C991       C1216   1.471       .  S
C992        H994   1.080       .  S
N995        N996   1.316       .  A
N995        C999   1.353       .  A
N995      Cu1003   2.069       .  S
N996        C997   1.341       .  A
N996      Cu1002   2.112       .  S
C997        C998   1.405       .  A
C997       H1000   1.080       .  S
C998        C999   1.398       .  A
C998       C1069   1.561       .  S
C999       H1001   1.081       .  S
Cu1002     N1005   2.113       .  S
Cu1003     N1013   2.076       .  S
Cu1004     N1006   2.032       .  S
Cu1004     N1012   2.037       .  S
N1005      N1006   1.314       .  A
N1005      C1009   1.337       .  A
N1006      C1007   1.348       .  A
C1007      C1008   1.392       .  A
C1007      H1010   1.080       .  S
C1008      C1009   1.404       .  A
C1008      C1019   1.558       .  S
C1009      H1011   1.073       .  S
N1012      N1013   1.323       .  A
N1012      C1016   1.336       .  A
N1013      C1014   1.340       .  A
C1014      C1015   1.388       .  A
C1014      H1017   1.080       .  S
C1015      C1016   1.379       .  A
C1016      H1018   1.081       .  S
C1019      C1801   1.569       .  S
C1019      C1888   1.595       .  S
N1020      N1021   1.317       .  A
N1020      C1024   1.355       .  A
N1020     Cu1028   2.089       .  S
N1021      C1022   1.341       .  A
N1021     Cu1027   2.100       .  S
C1022      C1023   1.402       .  A
C1022      H1025   1.080       .  S
C1023      C1024   1.401       .  A
C1023      C1070   1.568   1_554  S
C1024      H1026   1.081       .  S
Cu1027     N1030   2.100       .  S
Cu1028     N1038   2.094       .  S
Cu1029     N1031   2.037       .  S
Cu1029     N1037   2.042       .  S
N1030      N1031   1.315       .  A
N1030      C1034   1.335       .  A
N1031      C1032   1.349       .  A
C1032      C1033   1.393       .  A
C1032      H1035   1.081       .  S
C1033      C1034   1.401       .  A
C1033      C1068   1.554       .  S
C1034      H1036   1.072       .  S
N1037      N1038   1.324       .  A
N1037      C1041   1.339       .  A
N1038      C1039   1.342       .  A
C1039      C1040   1.391       .  A
C1039      H1042   1.081       .  S
C1040      C1041   1.378       .  A
C1040      C1488   1.478       .  S
C1041      H1043   1.081       .  S
N1044      N1045   1.313       .  A
N1044      C1048   1.346       .  A
N1044     Cu1052   2.054       .  S
N1045      C1046   1.341       .  A
N1045     Cu1051   2.087       .  S
C1046      C1047   1.404       .  A
C1046      H1049   1.080       .  S
C1047      C1048   1.397       .  A
C1047      C1069   1.546   1_554  S
C1048      H1050   1.081       .  S
Cu1051     N1054   2.088       .  S
Cu1052     N1062   2.064       .  S
Cu1053     N1055   2.043       .  S
Cu1053     N1061   2.048       .  S
N1054      N1055   1.315       .  A
N1054      C1058   1.333       .  A
N1055      C1056   1.349       .  A
C1056      C1057   1.394       .  A
C1056      H1059   1.080       .  S
C1057      C1058   1.398       .  A
C1057      C1068   1.555       .  S
C1058      H1060   1.073       .  S
N1061      N1062   1.323       .  A
N1061      C1065   1.338       .  A
N1062      C1063   1.338       .  A
C1063      C1064   1.386       .  A
C1063      H1066   1.080       .  S
C1064      C1065   1.382       .  A
C1064      C1352   1.473       .  S
C1065      H1067   1.081       .  S
C1068      C1804   1.572       .  S
C1068      C2044   1.592       .  S
C1069      C1789   1.592       .  S
C1069      C1816   1.607       .  S
C1070      C1777   1.598       .  S
C1070      C1792   1.590       .  S
N1071      N1072   1.315       .  A
N1071      C1075   1.342       .  A
N1071     Cu1079   2.057       .  S
N1072      C1073   1.347       .  A
N1072     Cu1078   2.106       .  S
C1073      C1074   1.396       .  A
C1073      H1076   1.074       .  S
C1074      C1075   1.394       .  A
C1074      C1170   1.539       .  S
C1075      H1077   1.081       .  S
Cu1078     N1081   2.108       .  S
Cu1079     N1089   2.059       .  S
Cu1080     N1082   2.054       .  S
Cu1080     N1088   2.062       .  S
N1081      N1082   1.315       .  A
N1081      C1085   1.346       .  A
N1082      C1083   1.343       .  A
C1083      C1084   1.398       .  A
C1083      H1086   1.081       .  S
C1084      C1085   1.407       .  A
C1084      C1119   1.559       .  S
C1085      H1087   1.080       .  S
N1088      N1089   1.321       .  A
N1088      C1092   1.339       .  A
N1089      C1090   1.341       .  A
C1090      C1091   1.386       .  A
C1090      H1093   1.081       .  S
C1091      C1092   1.386       .  A
C1092      H1094   1.081       .  S
N1095      N1096   1.316       .  A
N1095      C1099   1.349       .  A
N1095     Cu1103   2.060       .  S
N1096      C1097   1.344       .  A
N1096     Cu1102   2.119       .  S
C1097      C1098   1.407       .  A
C1097      H1100   1.080       .  S
C1098      C1099   1.395       .  A
C1098      C1119   1.551       .  S
C1099      H1101   1.082       .  S
Cu1102     N1105   2.118       .  S
Cu1103     N1113   2.067       .  S
Cu1104     N1106   2.031       .  S
Cu1104     N1112   2.037       .  S
N1105      N1106   1.312       .  A
N1105      C1109   1.341       .  A
N1106      C1107   1.345       .  A
C1107      C1108   1.395       .  A
C1107      H1110   1.078       .  S
C1108      C1109   1.404       .  A
C1108      C1169   1.560       .  S
C1109      H1111   1.074       .  S
N1112      N1113   1.322       .  A
N1112      C1116   1.336       .  A
N1113      C1114   1.339       .  A
C1114      C1115   1.387       .  A
C1114      H1117   1.081       .  S
C1115      C1116   1.379       .  A
C1115      C1198   1.472       .  S
C1116      H1118   1.081       .  S
C1119      C1756   1.599       .  S
C1119      C1765   1.576       .  S
N1120      N1121   1.314       .  A
N1120      C1124   1.352       .  A
N1120     Cu1128   2.054       .  S
N1121      C1122   1.335       .  A
N1121     Cu1127   2.109       .  S
C1122      C1123   1.412       .  A
C1122      H1125   1.072       .  S
C1123      C1124   1.402       .  A
C1123      C1170   1.582   1_455  S
C1124      H1126   1.081       .  S
Cu1127     N1130   2.108       .  S
Cu1128     N1138   2.059       .  S
Cu1129     N1131   2.072       .  S
Cu1129     N1137   2.077       .  S
N1130      N1131   1.318       .  A
N1130      C1134   1.340       .  A
N1131      C1132   1.355       .  A
C1132      C1133   1.396       .  A
C1132      H1135   1.081       .  S
C1133      C1134   1.403       .  A
C1133      C1168   1.560       .  S
C1134      H1136   1.081       .  S
N1137      N1138   1.324       .  A
N1137      C1141   1.341       .  A
N1138      C1139   1.340       .  A
C1139      C1140   1.381       .  A
C1139      H1142   1.081       .  S
C1140      C1141   1.387       .  A
C1141      H1143   1.081       .  S
N1144      N1145   1.315       .  A
N1144      C1148   1.342       .  A
N1144     Cu1152   2.071       .  S
N1145      C1146   1.345       .  A
N1145     Cu1151   2.066       .  S
C1146      C1147   1.398       .  A
C1146      H1149   1.081       .  S
C1147      C1148   1.398       .  A
C1147      C1168   1.531       .  S
C1148      H1150   1.082       .  S
Cu1151     N1154   2.070       .  S
Cu1152     N1162   2.075       .  S
Cu1153     N1155   2.033       .  S
Cu1153     N1161   2.041       .  S
N1154      N1155   1.314       .  A
N1154      C1158   1.328       .  A
N1155      C1156   1.348       .  A
C1156      C1157   1.395       .  A
C1156      H1159   1.081       .  S
C1157      C1158   1.400       .  A
C1157      C1169   1.549   1_455  S
C1158      H1160   1.071       .  S
N1161      N1162   1.322       .  A
N1161      C1165   1.335       .  A
N1162      C1163   1.343       .  A
C1163      C1164   1.388       .  A
C1163      H1166   1.081       .  S
C1164      C1165   1.381       .  A
C1165      H1167   1.080       .  S
C1168      C1768   1.587       .  S
C1168      C1852   1.595       .  S
C1169      C1729   1.601   1_655  S
C1169      C1741   1.572   1_655  S
C1170      C1744   1.593   1_655  S
C1170      C2080   1.601       .  S
C1171      C1172   1.393       .  A
C1171      C1176   1.398       .  A
C1172      C1173   1.399       .  A
C1172      H1177   1.081       .  S
C1173      C1174   1.397       .  A
C1173      C1209   1.478       .  S
C1174      C1175   1.403       .  A
C1174      H1178   1.081       .  S
C1175      C1176   1.407       .  A
C1175      C1182   1.483       .  S
C1176      H1179   1.078       .  S
C1180      C1181   1.398       .  A
C1180      C1185   1.401       .  A
C1181      C1182   1.400       .  A
C1181      H1186   1.078       .  S
C1182      C1183   1.404       .  A
C1183      C1184   1.399       .  A
C1183      H1187   1.081       .  S
C1184      C1185   1.402       .  A
C1184      C1220   1.484       .  S
C1185      H1188   1.079       .  S
C1189      C1190   1.397       .  A
C1189      C1194   1.396       .  A
C1189      C1269   1.470       .  S
C1190      C1191   1.405       .  A
C1190      H1195   1.081       .  S
C1191      C1192   1.403       .  A
C1191      C1218   1.485       .  S
C1192      C1193   1.402       .  A
C1192      H1196   1.078       .  S
C1193      C1194   1.401       .  A
C1193      C1200   1.483       .  S
C1194      H1197   1.081       .  S
C1198      C1199   1.391       .  A
C1198      C1203   1.398       .  A
C1199      C1200   1.399       .  A
C1199      H1204   1.078       .  S
C1200      C1201   1.404       .  A
C1201      C1202   1.408       .  A
C1201      H1205   1.079       .  S
C1202      C1203   1.405       .  A
C1202      C1211   1.493       .  S
C1203      H1206   1.077       .  S
C1207      C1208   1.390       .  A
C1207      C1212   1.400       .  A
C1207      C1628   1.466       .  S
C1208      C1209   1.395       .  A
C1208      H1213   1.081       .  S
C1209      C1210   1.402       .  A
C1210      C1211   1.406       .  A
C1210      H1214   1.077       .  S
C1211      C1212   1.407       .  A
C1212      H1215   1.080       .  S
C1216      C1217   1.394       .  A
C1216      C1221   1.398       .  A
C1217      C1218   1.401       .  A
C1217      H1222   1.078       .  S
C1218      C1219   1.405       .  A
C1219      C1220   1.404       .  A
C1219      H1223   1.081       .  S
C1220      C1221   1.400       .  A
C1221      H1224   1.078       .  S
N1225      N1226   1.313       .  A
N1225      C1229   1.339       .  A
N1225     Cu1233   2.052       .  S
N1226      C1227   1.346       .  A
N1226     Cu1232   2.088       .  S
C1227      C1228   1.404       .  A
C1227      H1230   1.080       .  S
C1228      C1229   1.397       .  A
C1228      C1273   1.535       .  S
C1229      H1231   1.081       .  S
Cu1232     N1235   2.088       .  S
Cu1233     N1243   2.059       .  S
Cu1234     N1236   2.041       .  S
Cu1234     N1242   2.053       .  S
N1235      N1236   1.312       .  A
N1235      C1239   1.346       .  A
N1236      C1237   1.337       .  A
C1237      C1238   1.396       .  A
C1237      H1240   1.082       .  S
C1238      C1239   1.404       .  A
C1238      C1324   1.531       .  S
C1239      H1241   1.079       .  S
N1242      N1243   1.323       .  A
N1242      C1246   1.337       .  A
N1243      C1244   1.341       .  A
C1244      C1245   1.383       .  A
C1244      H1247   1.081       .  S
C1245      C1246   1.381       .  A
C1246      H1248   1.082       .  S
N1249      N1250   1.318       .  A
N1249      C1253   1.354       .  A
N1249     Cu1257   2.056       .  S
N1250      C1251   1.341       .  A
N1250     Cu1256   2.129       .  S
C1251      C1252   1.409       .  A
C1251      H1254   1.080       .  S
C1252      C1253   1.394       .  A
C1252      C1273   1.566       .  S
C1253      H1255   1.081       .  S
Cu1256     N1259   2.127       .  S
Cu1257     N1267   2.062       .  S
Cu1258     N1260   2.062       .  S
Cu1258     N1266   2.067       .  S
N1259      N1260   1.316       .  A
N1259      C1263   1.348       .  A
N1260      C1261   1.349       .  A
C1261      C1262   1.397       .  A
C1261      H1264   1.081       .  S
C1262      C1263   1.409       .  A
C1262      C1323   1.567       .  S
C1263      H1265   1.079       .  S
N1266      N1267   1.325       .  A
N1266      C1270   1.342       .  A
N1267      C1268   1.339       .  A
C1268      C1269   1.381       .  A
C1268      H1271   1.081       .  S
C1269      C1270   1.382       .  A
C1270      H1272   1.082       .  S
C1273      C1717   1.582       .  S
C1273      C1753   1.599       .  S
N1274      N1275   1.317       .  A
N1274      C1278   1.356       .  A
N1274     Cu1282   2.059       .  S
N1275      C1276   1.337       .  A
N1275     Cu1281   2.122       .  S
C1276      C1277   1.408       .  A
C1276      H1279   1.078   1_554  S
C1277      C1278   1.395       .  A
C1277      C1324   1.570   1_554  S
C1278      H1280   1.081       .  S
Cu1281     N1284   2.120       .  S
Cu1282     N1292   2.067       .  S
Cu1283     N1285   2.063       .  S
Cu1283     N1291   2.067       .  S
N1284      N1285   1.316       .  A
N1284      C1288   1.346       .  A
N1285      C1286   1.349       .  A
C1286      C1287   1.396       .  A
C1286      H1289   1.082       .  S
C1287      C1288   1.408       .  A
C1287      C1322   1.556       .  S
C1288      H1290   1.080       .  S
N1291      N1292   1.324       .  A
N1291      C1295   1.342       .  A
N1292      C1293   1.338       .  A
C1293      C1294   1.385       .  A
C1293      H1296   1.081       .  S
C1294      C1295   1.384       .  A
C1295      H1297   1.081       .  S
N1298      N1299   1.314       .  A
N1298      C1302   1.347       .  A
N1298     Cu1306   2.047       .  S
N1299      C1300   1.338       .  A
N1299     Cu1305   2.082       .  S
C1300      C1301   1.401       .  A
C1300      H1303   1.080       .  S
C1301      C1302   1.394       .  A
C1301      C1322   1.543       .  S
C1302      H1304   1.081       .  S
Cu1305     N1308   2.082       .  S
Cu1306     N1316   2.054       .  S
Cu1307     N1309   2.043       .  S
Cu1307     N1315   2.052       .  S
N1308      N1309   1.314       .  A
N1308      C1312   1.335       .  A
N1309      C1310   1.348       .  A
C1310      C1311   1.393       .  A
C1310      H1313   1.082       .  S
C1311      C1312   1.402       .  A
C1311      C1323   1.534   1_554  S
C1312      H1314   1.080       .  S
N1315      N1316   1.325       .  A
N1315      C1319   1.337       .  A
N1316      C1317   1.338       .  A
C1317      C1318   1.377       .  A
C1317      H1320   1.082       .  S
C1318      C1319   1.377       .  A
C1318      C1506   1.459       .  S
C1319      H1321   1.082       .  S
C1322      C1705   1.595       .  S
C1322      C1720   1.574       .  S
C1323      C1693   1.574       .  S
C1323      C1780   1.600       .  S
C1324      C1696   1.580       .  S
C1324      C1924   1.594       .  S
C1325      C1326   1.399       .  A
C1325      C1330   1.399       .  A
C1325      C1577   1.470       .  S
C1326      C1327   1.398       .  A
C1326      H1331   1.079       .  S
C1327      C1328   1.401       .  A
C1327      C1336   1.479       .  S
C1328      C1329   1.402       .  A
C1328      H1332   1.082       .  S
C1329      C1330   1.400       .  A
C1329      C1374   1.482       .  S
C1330      H1333   1.080       .  S
C1334      C1335   1.402       .  A
C1334      C1339   1.397       .  A
C1334      C1472   1.472       .  S
C1335      C1336   1.403       .  A
C1335      H1340   1.080       .  S
C1336      C1337   1.399       .  A
C1337      C1338   1.398       .  A
C1337      H1341   1.083       .  S
C1338      C1339   1.396       .  A
C1338      C1345   1.472       .  S
C1339      H1342   1.079       .  S
C1343      C1344   1.399       .  A
C1343      C1348   1.401       .  A
C1344      C1345   1.398       .  A
C1344      H1349   1.080       .  S
C1345      C1346   1.394       .  A
C1346      C1347   1.397       .  A
C1346      H1350   1.083       .  S
C1347      C1348   1.405       .  A
C1347      C1354   1.477       .  S
C1348      H1351   1.079       .  S
C1352      C1353   1.398       .  A
C1352      C1357   1.402       .  A
C1353      C1354   1.397       .  A
C1353      H1358   1.079       .  S
C1354      C1355   1.402       .  A
C1355      C1356   1.399       .  A
C1355      H1359   1.082       .  S
C1356      C1357   1.402       .  A
C1356      C1363   1.483       .  S
C1357      H1360   1.080       .  S
C1361      C1362   1.401       .  A
C1361      C1366   1.399       .  A
C1362      C1363   1.400       .  A
C1362      H1367   1.079       .  S
C1363      C1364   1.401       .  A
C1364      C1365   1.402       .  A
C1364      H1368   1.082       .  S
C1365      C1366   1.401       .  A
C1365      C1372   1.482       .  S
C1366      H1369   1.079       .  S
C1370      C1371   1.402       .  A
C1370      C1375   1.400       .  A
C1371      C1372   1.401       .  A
C1371      H1376   1.080       .  S
C1372      C1373   1.399       .  A
C1373      C1374   1.401       .  A
C1373      H1377   1.082       .  S
C1374      C1375   1.403       .  A
C1375      H1378   1.079       .  S
N1379      N1380   1.310       .  A
N1379      C1383   1.345       .  A
N1379     Cu1387   2.058       .  S
N1380      C1381   1.341       .  A
N1380     Cu1386   2.122       .  S
C1381      C1382   1.407       .  A
C1381      H1384   1.074       .  S
C1382      C1383   1.408       .  A
C1382      C1478   1.582       .  S
C1383      H1385   1.076       .  S
Cu1386     N1389   2.123       .  S
Cu1387     N1397   2.069       .  S
Cu1388     N1390   2.037       .  S
Cu1388     N1396   2.048       .  S
N1389      N1390   1.311       .  A
N1389      C1393   1.349       .  A
N1390      C1391   1.342       .  A
C1391      C1392   1.397       .  A
C1391      H1394   1.079       .  S
C1392      C1393   1.413       .  A
C1392      C1427   1.560       .  S
C1393      H1395   1.079       .  S
N1396      N1397   1.324       .  A
N1396      C1400   1.334       .  A
N1397      C1398   1.343       .  A
C1398      C1399   1.385       .  A
C1398      H1401   1.081       .  S
C1399      C1400   1.379       .  A
C1400      H1402   1.081       .  S
N1403      N1404   1.316       .  A
N1403      C1407   1.354       .  A
N1403     Cu1411   2.066       .  S
N1404      C1405   1.335       .  A
N1404     Cu1410   2.092       .  S
C1405      C1406   1.404       .  A
C1405      H1408   1.081       .  S
C1406      C1407   1.398       .  A
C1406      C1427   1.558       .  S
C1407      H1409   1.082       .  S
Cu1410     N1413   2.092       .  S
Cu1411     N1421   2.071       .  S
Cu1412     N1414   2.050       .  S
Cu1412     N1420   2.058       .  S
N1413      N1414   1.315       .  A
N1413      C1417   1.334       .  A
N1414      C1415   1.353       .  A
C1415      C1416   1.396       .  A
C1415      H1418   1.079       .  S
C1416      C1417   1.407       .  A
C1416      C1477   1.561   1_655  S
C1417      H1419   1.077       .  S
N1420      N1421   1.325       .  A
N1420      C1424   1.337       .  A
N1421      C1422   1.341       .  A
C1422      C1423   1.386       .  A
C1422      H1425   1.081       .  S
C1423      C1424   1.382       .  A
C1423      C1524   1.475       .  S
C1424      H1426   1.081       .  S
C1427      C1681   1.584       .  S
C1427      C1708   1.599       .  S
N1428      N1429   1.319       .  A
N1428      C1432   1.347       .  A
N1428     Cu1436   2.052       .  S
N1429      C1430   1.338       .  A
N1429     Cu1435   2.100       .  S
C1430      C1431   1.400       .  A
C1430      H1433   1.078   1_455  S
C1431      C1432   1.392       .  A
C1431      C1478   1.549   1_455  S
C1432      H1434   1.081       .  S
Cu1435     N1438   2.097       .  S
Cu1436     N1446   2.053       .  S
Cu1437     N1439   2.040       .  S
Cu1437     N1445   2.041       .  S
N1438      N1439   1.315       .  A
N1438      C1442   1.344       .  A
N1439      C1440   1.340       .  A
C1440      C1441   1.393       .  A
C1440      H1443   1.082       .  S
C1441      C1442   1.406       .  A
C1441      C1476   1.553       .  S
C1442      H1444   1.082       .  S
N1445      N1446   1.320       .  A
N1445      C1449   1.337       .  A
N1446      C1447   1.340       .  A
C1447      C1448   1.386       .  A
C1447      H1450   1.081       .  S
C1448      C1449   1.382       .  A
C1449      H1451   1.081       .  S
N1452      N1453   1.319       .  A
N1452      C1456   1.353       .  A
N1452     Cu1460   2.055       .  S
N1453      C1454   1.339       .  A
N1453     Cu1459   2.118       .  S
C1454      C1455   1.405       .  A
C1454      H1457   1.079       .  S
C1455      C1456   1.392       .  A
C1455      C1476   1.546       .  S
C1456      H1458   1.081       .  S
Cu1459     N1462   2.113       .  S
Cu1460     N1470   2.060       .  S
Cu1461     N1463   2.041       .  S
Cu1461     N1469   2.045       .  S
N1462      N1463   1.314       .  A
N1462      C1466   1.347       .  A
N1463      C1464   1.342       .  A
C1464      C1465   1.395       .  A
C1464      H1467   1.082       .  S
C1465      C1466   1.409       .  A
C1465      C1477   1.551       .  S
C1466      H1468   1.081       .  S
N1469      N1470   1.322       .  A
N1469      C1473   1.338       .  A
N1470      C1471   1.338       .  A
C1471      C1472   1.386       .  A
C1471      H1474   1.080       .  S
C1472      C1473   1.381       .  A
C1473      H1475   1.081       .  S
C1476      C1684   1.579       .  S
C1476      C1837   1.607       .  S
C1477      C1657   1.590       .  S
C1477      C1669   1.570   1_455  S
C1478      C1672   1.597       .  S
C1478      C2092   1.595       .  S
C1479      C1480   1.396       .  A
C1479      C1484   1.400       .  A
C1480      C1481   1.402       .  A
C1480      H1485   1.079       .  S
C1481      C1482   1.405       .  A
C1481      C1517   1.490       .  S
C1482      C1483   1.406       .  A
C1482      H1486   1.079       .  S
C1483      C1484   1.407       .  A
C1483      C1499   1.493       .  S
C1484      H1487   1.077       .  S
C1488      C1489   1.403       .  A
C1488      C1493   1.392       .  A
C1489      C1490   1.409       .  A
C1489      H1494   1.078       .  S
C1490      C1491   1.404       .  A
C1490      C1501   1.492       .  S
C1491      C1492   1.401       .  A
C1491      H1495   1.080       .  S
C1492      C1493   1.401       .  A
C1492      C1508   1.484       .  S
C1493      H1496   1.079       .  S
C1497      C1498   1.399       .  A
C1497      C1502   1.400       .  A
C1498      C1499   1.403       .  A
C1498      H1503   1.077       .  S
C1499      C1500   1.407       .  A
C1500      C1501   1.408       .  A
C1500      H1504   1.080       .  S
C1501      C1502   1.401       .  A
C1502      H1505   1.077       .  S
C1506      C1507   1.392       .  A
C1506      C1511   1.392       .  A
C1507      C1508   1.400       .  A
C1507      H1512   1.081       .  S
C1508      C1509   1.405       .  A
C1509      C1510   1.405       .  A
C1509      H1513   1.077       .  S
C1510      C1511   1.398       .  A
C1510      C1526   1.481       .  S
C1511      H1514   1.081       .  S
C1515      C1516   1.401       .  A
C1515      C1520   1.396       .  A
C1515      C1604   1.476       .  S
C1516      C1517   1.406       .  A
C1516      H1521   1.079       .  S
C1517      C1518   1.404       .  A
C1518      C1519   1.403       .  A
C1518      H1522   1.077       .  S
C1519      C1520   1.399       .  A
C1519      C1528   1.485       .  S
C1520      H1523   1.078       .  S
C1524      C1525   1.394       .  A
C1524      C1529   1.395       .  A
C1525      C1526   1.404       .  A
C1525      H1530   1.078       .  S
C1526      C1527   1.402       .  A
C1527      C1528   1.402       .  A
C1527      H1531   1.080       .  S
C1528      C1529   1.404       .  A
C1529      H1532   1.078       .  S
N1533      N1534   1.315       .  A
N1533      C1537   1.349       .  A
N1533     Cu1541   2.059       .  S
N1534      C1535   1.338       .  A
N1534     Cu1540   2.081       .  S
C1535      C1536   1.400       .  A
C1535      H1538   1.080       .  S
C1536      C1537   1.397       .  A
C1536      C1582   1.550       .  S
C1537      H1539   1.081       .  S
Cu1540     N1543   2.082       .  S
Cu1541     N1551   2.066       .  S
Cu1542     N1544   2.046       .  S
Cu1542     N1550   2.052       .  S
N1543      N1544   1.314       .  A
N1543      C1547   1.331       .  A
N1544      C1545   1.351       .  A
C1545      C1546   1.397       .  A
C1545      H1548   1.081       .  S
C1546      C1547   1.400       .  A
C1546      C1583   1.561   1_455  S
C1547      H1549   1.072       .  S
N1550      N1551   1.324       .  A
N1550      C1554   1.337       .  A
N1551      C1552   1.340       .  A
C1552      C1553   1.385       .  A
C1552      H1555   1.081       .  S
C1553      C1554   1.382       .  A
C1554      H1556   1.081       .  S
N1557      N1558   1.314       .  A
N1557      C1561   1.347       .  A
N1557     Cu1565   2.051       .  S
N1558      C1559   1.340       .  A
N1558     Cu1564   2.087       .  S
C1559      C1560   1.401       .  A
C1559      H1562   1.079       .  S
C1560      C1561   1.395       .  A
C1560      C1582   1.544       .  S
C1561      H1563   1.082       .  S
Cu1564     N1567   2.091       .  S
Cu1565     N1575   2.061       .  S
Cu1566     N1568   2.047       .  S
Cu1566     N1574   2.056       .  S
N1567      N1568   1.316       .  A
N1567      C1571   1.334       .  A
N1568      C1569   1.352       .  A
C1569      C1570   1.392       .  A
C1569      H1572   1.081       .  S
C1570      C1571   1.402       .  A
C1570      C1581   1.537       .  S
C1571      H1573   1.079       .  S
N1574      N1575   1.324       .  A
N1574      C1578   1.338       .  A
N1575      C1576   1.338       .  A
C1576      C1577   1.382       .  A
C1576      H1579   1.081       .  S
C1577      C1578   1.382       .  A
C1578      H1580   1.080       .  S
C1581      C1587   1.560   1_455  S
C1581      C1645   1.573       .  S
C1581      C1660   1.595       .  S
C1582      C1636   1.575       .  S
C1582      C1984   1.589       .  S
C1583      C1621   1.554       .  S
C1583      C1648   1.575   1_655  S
C1583      C1732   1.593       .  S
N1584      N1585   1.314       .  A
N1584      C1588   1.346       .  A
N1584     Cu1592   2.058       .  S
N1585      C1586   1.343       .  A
N1585     Cu1591   2.107       .  S
C1586      C1587   1.405       .  A
C1586      H1589   1.077       .  S
C1587      C1588   1.399       .  A
C1588      H1590   1.081       .  S
Cu1591     N1594   2.106       .  S
Cu1592     N1602   2.064       .  S
Cu1593     N1595   2.045       .  S
Cu1593     N1601   2.053       .  S
N1594      N1595   1.313       .  A
N1594      C1598   1.348       .  A
N1595      C1596   1.340       .  A
C1596      C1597   1.395       .  A
C1596      H1599   1.082       .  S
C1597      C1598   1.407       .  A
C1597      C1632   1.536       .  S
C1598      H1600   1.080       .  S
N1601      N1602   1.323       .  A
N1601      C1605   1.340       .  A
N1602      C1603   1.338       .  A
C1603      C1604   1.386       .  A
C1603      H1606   1.080       .  S
C1604      C1605   1.382       .  A
C1605      H1607   1.081       .  S
N1608      N1609   1.316       .  A
N1608      C1612   1.352       .  A
N1608     Cu1616   2.066       .  S
N1609      C1610   1.340       .  A
N1609     Cu1615   2.108       .  S
C1610      C1611   1.405       .  A
C1610      H1613   1.080       .  S
C1611      C1612   1.397       .  A
C1611      C1632   1.565       .  S
C1612      H1614   1.081       .  S
Cu1615     N1618   2.108       .  S
Cu1616     N1626   2.072       .  S
Cu1617     N1619   2.036       .  S
Cu1617     N1625   2.040       .  S
N1618      N1619   1.315       .  A
N1618      C1622   1.336       .  A
N1619      C1620   1.349       .  A
C1620      C1621   1.392       .  A
C1620      H1623   1.080       .  S
C1621      C1622   1.400       .  A
C1622      H1624   1.071       .  S
N1625      N1626   1.324       .  A
N1625      C1629   1.338       .  A
N1626      C1627   1.340       .  A
C1627      C1628   1.384       .  A
C1627      H1630   1.081       .  S
C1628      C1629   1.376       .  A
C1629      H1631   1.081       .  S
C1632      C1633   1.581       .  S
C1632      C2176   1.594       .  S
C1633      C1634   1.417       .  A
C1633      C1638   1.424       .  A
C1634      C1635   1.410   1_655  A
C1634      H1643   1.082       .  S
C1635      C1636   1.426       .  A
C1635      S1639   1.798       .  S
C1636      C1637   1.407       .  A
C1637      C1638   1.404   1_455  A
C1637      H1644   1.076       .  S
C1638      S1640   1.783       .  S
S1639      H1642   1.407       .  S
S1640      H1641   1.406       .  S
C1645      C1646   1.419   1_455  A
C1645      C1650   1.446       .  A
C1646      C1647   1.410       .  A
C1646      H1655   1.083       .  S
C1647      C1648   1.423   1_655  A
C1647      S1651   1.807       .  S
C1648      C1649   1.406       .  A
C1649      C1650   1.402       .  A
C1649      H1656   1.083       .  S
C1650      S1652   1.823       .  S
S1651      H1654   1.399       .  S
S1652      H1653   1.381       .  S
C1657      C1658   1.412       .  A
C1657      C1662   1.427   1_455  A
C1658      C1659   1.410       .  A
C1658      H1667   1.080       .  S
C1659      C1660   1.426       .  A
C1659      S1663   1.783       .  S
C1660      C1661   1.420   1_455  A
C1661      C1662   1.420       .  A
C1661      H1668   1.082       .  S
C1662      S1664   1.796       .  S
S1663      H1666   1.406       .  S
S1664      H1665   1.405       .  S
C1669      C1670   1.420   1_655  A
C1669      C1674   1.407       .  A
C1670      C1671   1.432       .  A
C1670      H1679   1.083       .  S
C1671      C1672   1.443   1_455  A
C1671      S1675   1.801       .  S
C1672      C1673   1.406       .  A
C1673      C1674   1.381       .  A
C1673      H1680   1.069       .  S
C1674      S1676   1.810       .  S
S1675      H1678   1.394       .  S
S1676      H1677   1.406       .  S
C1681      C1682   1.409       .  A
C1681      C1686   1.422       .  A
C1682      C1683   1.405   1_655  A
C1682      H1691   1.080       .  S
C1683      C1684   1.443       .  A
C1683      S1687   1.821       .  S
C1684      C1685   1.419       .  A
C1685      C1686   1.414   1_455  A
C1685      H1692   1.084       .  S
C1686      S1688   1.791       .  S
S1687      H1690   1.378       .  S
S1688      H1689   1.407       .  S
C1693      C1694   1.409       .  A
C1693      C1698   1.435   1_556  A
C1694      C1695   1.407       .  A
C1694      H1703   1.082       .  S
C1695      C1696   1.424       .  A
C1695      S1699   1.785       .  S
C1696      C1697   1.410   1_556  A
C1697      C1698   1.407       .  A
C1697      H1704   1.080       .  S
C1698      S1700   1.807       .  S
S1699      H1702   1.405       .  S
S1700      H1701   1.407       .  S
C1705      C1706   1.417       .  A
C1705      C1710   1.431       .  A
C1706      C1707   1.418       .  A
C1706      H1715   1.078       .  S
C1707      C1708   1.427       .  A
C1707      S1711   1.796       .  S
C1708      C1709   1.416       .  A
C1709      C1710   1.421       .  A
C1709      H1716   1.073       .  S
C1710      S1712   1.808       .  S
S1711      H1714   1.407       .  S
S1712      H1713   1.407       .  S
C1717      C1718   1.416       .  A
C1717      C1722   1.422       .  A
C1718      C1719   1.410   1_556  A
C1718      H1727   1.083       .  S
C1719      C1720   1.428       .  A
C1719      S1723   1.798       .  S
C1720      C1721   1.408       .  A
C1721      C1722   1.404   1_554  A
C1721      H1728   1.077       .  S
C1722      S1724   1.784       .  S
S1723      H1726   1.407       .  S
S1724      H1725   1.406       .  S
C1729      C1730   1.417   1_455  A
C1729      C1734   1.432       .  A
C1730      C1731   1.413       .  A
C1730      H1739   1.082       .  S
C1731      C1732   1.439       .  A
C1731      S1735   1.821       .  S
C1732      C1733   1.420   1_655  A
C1733      C1734   1.417       .  A
C1733      H1740   1.080       .  S
C1734      S1736   1.796       .  S
S1735      H1738   1.393       .  S
S1736      H1737   1.404       .  S
C1741      C1742   1.414   1_455  A
C1741      C1746   1.433       .  A
C1742      C1743   1.406       .  A
C1742      H1751   1.084       .  S
C1743      C1744   1.419   1_655  A
C1743      S1747   1.799       .  S
C1744      C1745   1.416       .  A
C1745      C1746   1.411       .  A
C1745      H1752   1.078       .  S
C1746      S1748   1.810       .  S
S1747      H1750   1.408   1_655  S
S1748      H1749   1.406       .  S
C1753      C1754   1.418       .  A
C1753      C1758   1.451       .  A
C1754      C1755   1.428       .  A
C1754      H1763   1.081       .  S
C1755      C1756   1.431       .  A
C1755      S1759   1.805       .  S
C1756      C1757   1.407       .  A
C1757      C1758   1.413       .  A
C1757      H1764   1.079       .  S
C1758      S1760   1.824       .  S
S1759      H1762   1.406       .  S
S1760      H1761   1.380       .  S
C1765      C1766   1.410       .  A
C1765      C1770   1.427       .  A
C1766      C1767   1.405   1_655  A
C1766      H1775   1.077       .  S
C1767      C1768   1.421       .  A
C1767      S1771   1.786       .  S
C1768      C1769   1.418       .  A
C1769      C1770   1.413   1_455  A
C1769      H1776   1.083       .  S
C1770      S1772   1.797       .  S
S1771      H1774   1.406       .  S
S1772      H1773   1.407       .  S
C1777      C1778   1.412   1_556  A
C1777      C1782   1.438       .  A
C1778      C1779   1.422       .  A
C1778      H1787   1.080       .  S
C1779      C1780   1.434   1_554  A
C1779      S1783   1.799       .  S
C1780      C1781   1.412       .  A
C1781      C1782   1.419       .  A
C1781      H1788   1.080       .  S
C1782      S1784   1.805       .  S
S1783      H1786   1.407       .  S
S1784      H1785   1.407       .  S
C1789      C1790   1.415       .  A
C1789      C1794   1.434   1_556  A
C1790      C1791   1.419       .  A
C1790      H1799   1.081       .  S
C1791      C1792   1.431       .  A
C1791      S1795   1.800       .  S
C1792      C1793   1.411   1_556  A
C1793      C1794   1.412       .  A
C1793      H1800   1.081       .  S
C1794      S1796   1.802       .  S
S1795      H1798   1.406       .  S
S1796      H1797   1.407       .  S
C1801      C1802   1.413       .  A
C1801      C1806   1.421       .  A
C1802      C1803   1.402   1_556  A
C1802      H1811   1.083       .  S
C1803      C1804   1.425       .  A
C1803      S1807   1.806       .  S
C1804      C1805   1.415       .  A
C1805      C1806   1.409   1_554  A
C1805      H1812   1.081       .  S
C1806      S1808   1.808       .  S
S1807      H1810   1.400       .  S
S1808      H1809   1.406       .  S
C1813      C1814   1.416   1_556  A
C1813      C1818   1.440       .  A
C1814      C1815   1.412       .  A
C1814      H1823   1.079       .  S
C1815      C1816   1.432   1_554  A
C1815      S1819   1.801       .  S
C1816      C1817   1.423       .  A
C1817      C1818   1.433       .  A
C1817      H1824   1.082       .  S
C1818      S1820   1.811       .  S
S1819      H1822   1.408       .  S
S1820      H1821   1.398       .  S
C1825      C1826   1.410       .  A
C1825      C1830   1.445       .  A
C1826      C1827   1.383   1_556  A
C1826      H1835   1.064       .  S
C1827      C1828   1.407   1_554  A
C1827      S1831   1.806       .  S
C1828      C1829   1.421       .  A
C1829      C1830   1.435       .  A
C1829      H1836   1.083       .  S
C1830      S1832   1.794       .  S
S1831      H1834   1.408       .  S
S1832      H1833   1.406   1_556  S
C1837      C1838   1.423       .  A
C1837      C1842   1.426       .  A
C1838      C1839   1.422       .  A
C1838      H1847   1.081       .  S
C1839      C1840   1.431       .  A
C1839      S1843   1.797       .  S
C1840      C1841   1.413       .  A
C1841      C1842   1.415       .  A
C1841      H1848   1.071       .  S
C1842      S1844   1.785       .  S
S1843      H1846   1.407       .  S
S1844      H1845   1.405       .  S
C1849      C1850   1.412       .  A
C1849      C1854   1.429       .  A
C1850      C1851   1.413       .  A
C1850      H1859   1.080       .  S
C1851      C1852   1.451       .  A
C1851      S1855   1.823       .  S
C1852      C1853   1.414       .  A
C1853      C1854   1.420       .  A
C1853      H1860   1.083       .  S
C1854      S1856   1.783       .  S
S1855      H1858   1.379       .  S
S1856      H1857   1.407       .  S
C1861      C1862   1.413       .  A
C1861      C1866   1.434       .  A
C1862      C1863   1.414   1_556  A
C1862      H1871   1.083       .  S
C1863      C1864   1.427       .  A
C1863      S1867   1.800       .  S
C1864      C1865   1.408       .  A
C1865      C1866   1.403   1_554  A
C1865      H1872   1.078       .  S
C1866      S1868   1.813       .  S
S1867      H1870   1.408   1_554  S
S1868      H1869   1.407       .  S
C1873      C1874   1.415       .  A
C1873      C1878   1.436   1_545  A
C1874      C1875   1.414       .  A
C1874      H1883   1.083       .  S
C1875      C1876   1.424       .  A
C1875      S1879   1.795       .  S
C1876      C1877   1.407   1_545  A
C1877      C1878   1.404       .  A
C1877      H1884   1.078       .  S
C1878      S1880   1.807       .  S
S1879      H1882   1.406       .  S
S1880      H1881   1.408       .  S
C1885      C1886   1.415       .  A
C1885      C1890   1.436       .  A
C1886      C1887   1.416       .  A
C1886      H1895   1.082       .  S
C1887      C1888   1.441       .  A
C1887      S1891   1.820       .  S
C1888      C1889   1.417       .  A
C1889      C1890   1.416       .  A
C1889      H1896   1.079       .  S
C1890      S1892   1.799       .  S
S1891      H1894   1.393       .  S
S1892      H1893   1.407       .  S
C1897      C1898   1.412       .  A
C1897      C1902   1.425       .  A
C1898      C1899   1.404   1_565  A
C1898      H1907   1.083       .  S
C1899      C1900   1.427       .  A
C1899      S1903   1.807       .  S
C1900      C1901   1.412       .  A
C1901      C1902   1.401   1_545  A
C1901      H1908   1.083       .  S
C1902      S1904   1.806       .  S
S1903      H1906   1.403       .  S
S1904      H1905   1.403       .  S
C1909      C1910   1.418   1_556  A
C1909      C1914   1.447       .  A
C1910      C1911   1.426       .  A
C1910      H1919   1.083       .  S
C1911      C1912   1.435   1_554  A
C1911      S1915   1.811       .  S
C1912      C1913   1.412       .  A
C1913      C1914   1.409       .  A
C1913      H1920   1.078       .  S
C1914      S1916   1.824       .  S
S1915      H1918   1.392       .  S
S1916      H1917   1.384       .  S
C1921      C1922   1.412       .  A
C1921      C1926   1.427   1_556  A
C1922      C1923   1.413       .  A
C1922      H1931   1.081       .  S
C1923      C1924   1.450       .  A
C1923      S1927   1.822       .  S
C1924      C1925   1.415   1_556  A
C1925      C1926   1.420       .  A
C1925      H1932   1.082       .  S
C1926      S1928   1.785       .  S
S1927      H1930   1.380       .  S
S1928      H1929   1.405       .  S
C1933      C1934   1.413       .  A
C1933      C1938   1.445   1_556  A
C1934      C1935   1.413       .  A
C1934      H1943   1.083       .  S
C1935      C1936   1.423       .  A
C1935      S1939   1.785       .  S
C1936      C1937   1.412   1_556  A
C1937      C1938   1.407       .  A
C1937      H1944   1.082       .  S
C1938      S1940   1.820       .  S
S1939      H1942   1.405       .  S
S1940      H1941   1.380       .  S
C1945      C1946   1.414       .  A
C1945      C1950   1.436       .  A
C1946      C1947   1.409       .  A
C1946      H1955   1.082       .  S
C1947      C1948   1.437       .  A
C1947      S1951   1.821       .  S
C1948      C1949   1.416       .  A
C1949      C1950   1.415       .  A
C1949      H1956   1.077       .  S
C1950      S1952   1.810       .  S
S1951      H1954   1.393       .  S
S1952      H1953   1.407       .  S
C1957      C1958   1.414       .  A
C1957      C1962   1.424       .  A
C1958      C1959   1.400   1_556  A
C1958      H1967   1.083       .  S
C1959      C1960   1.425       .  A
C1959      S1963   1.807       .  S
C1960      C1961   1.414       .  A
C1961      C1962   1.399   1_554  A
C1961      H1968   1.083       .  S
C1962      S1964   1.807       .  S
S1963      H1966   1.402       .  S
S1964      H1965   1.403       .  S
C1969      C1970   1.413   1_545  A
C1969      C1974   1.429       .  A
C1970      C1971   1.417       .  A
C1970      H1979   1.079       .  S
C1971      C1972   1.433   1_565  A
C1971      S1975   1.799       .  S
C1972      C1973   1.414       .  A
C1973      C1974   1.416       .  A
C1973      H1980   1.082       .  S
C1974      S1976   1.785       .  S
S1975      H1978   1.407       .  S
S1976      H1977   1.407       .  S
C1981      C1982   1.418       .  A
C1981      C1986   1.426       .  A
C1982      C1983   1.422       .  A
C1982      H1991   1.079       .  S
C1983      C1984   1.434       .  A
C1983      S1987   1.809       .  S
C1984      C1985   1.408       .  A
C1985      C1986   1.410       .  A
C1985      H1992   1.078       .  S
C1986      S1988   1.782       .  S
S1987      H1990   1.406       .  S
S1988      H1989   1.407       .  S
C1993      C1994   1.416       .  A
C1993      C1998   1.446       .  A
C1994      C1995   1.411   1_545  A
C1994      H2003   1.083       .  S
C1995      C1996   1.421       .  A
C1995      S1999   1.795       .  S
C1996      C1997   1.405       .  A
C1997      C1998   1.401   1_565  A
C1997      H2004   1.080       .  S
C1998      S2000   1.824       .  S
S1999      H2002   1.406       .  S
S2000      H2001   1.380       .  S
C2005      C2006   1.406       .  A
C2005      C2010   1.425   1_545  A
C2006      C2007   1.400       .  A
C2006      H2015   1.078       .  S
C2007      C2008   1.435       .  A
C2007      S2011   1.812       .  S
C2008      C2009   1.412   1_545  A
C2009      C2010   1.415       .  A
C2009      H2016   1.082       .  S
C2010      S2012   1.804       .  S
S2011      H2014   1.408       .  S
S2012      H2013   1.406       .  S
C2017      C2018   1.415       .  A
C2017      C2022   1.431   1_545  A
C2018      C2019   1.418       .  A
C2018      H2027   1.079       .  S
C2019      C2020   1.427       .  A
C2019      S2023   1.795       .  S
C2020      C2021   1.414   1_545  A
C2021      C2022   1.415       .  A
C2021      H2028   1.077       .  S
C2022      S2024   1.808       .  S
S2023      H2026   1.407       .  S
S2024      H2025   1.407       .  S
C2029      C2030   1.411   1_545  A
C2029      C2034   1.428       .  A
C2030      C2031   1.408       .  A
C2030      H2039   1.077       .  S
C2031      C2032   1.426   1_565  A
C2031      S2035   1.797       .  S
C2032      C2033   1.412       .  A
C2033      C2034   1.409       .  A
C2033      H2040   1.079       .  S
C2034      S2036   1.798       .  S
S2035      H2038   1.407       .  S
S2036      H2037   1.407       .  S
C2041      C2042   1.415       .  A
C2041      C2046   1.436       .  A
C2042      C2043   1.416       .  A
C2042      H2051   1.082       .  S
C2043      C2044   1.441       .  A
C2043      S2047   1.820       .  S
C2044      C2045   1.416       .  A
C2045      C2046   1.413       .  A
C2045      H2052   1.080       .  S
C2046      S2048   1.800       .  S
S2047      H2050   1.393       .  S
S2048      H2049   1.407       .  S
C2053      C2054   1.415       .  A
C2053      C2058   1.440       .  A
C2054      C2055   1.411       .  A
C2054      H2063   1.080       .  S
C2055      C2056   1.436       .  A
C2055      S2059   1.801       .  S
C2056      C2057   1.413       .  A
C2057      C2058   1.414       .  A
C2057      H2064   1.082       .  S
C2058      S2060   1.820       .  S
S2059      H2062   1.407       .  S
S2060      H2061   1.393       .  S
C2065      C2066   1.414       .  A
C2065      C2070   1.423       .  A
C2066      C2067   1.403   1_565  A
C2066      H2075   1.083       .  S
C2067      C2068   1.426       .  A
C2067      S2071   1.807       .  S
C2068      C2069   1.414       .  A
C2069      C2070   1.401   1_545  A
C2069      H2076   1.083       .  S
C2070      S2072   1.805       .  S
S2071      H2074   1.402       .  S
S2072      H2073   1.403       .  S
C2077      C2078   1.416       .  A
C2077      C2082   1.438   1_655  A
C2078      C2079   1.416       .  A
C2078      H2087   1.081       .  S
C2079      C2080   1.434       .  A
C2079      S2083   1.817       .  S
C2080      C2081   1.417   1_655  A
C2081      C2082   1.414       .  A
C2081      H2088   1.076       .  S
C2082      S2084   1.818       .  S
S2083      H2086   1.391       .  S
S2084      H2085   1.394       .  S
C2089      C2090   1.423       .  A
C2089      C2094   1.438   1_655  A
C2090      C2091   1.422       .  A
C2090      H2099   1.080       .  S
C2091      C2092   1.428       .  A
C2091      S2095   1.803       .  S
C2092      C2093   1.416   1_655  A
C2093      C2094   1.412       .  A
C2093      H2100   1.078       .  S
C2094      S2096   1.821       .  S
S2095      H2098   1.405       .  S
S2096      H2097   1.392       .  S
C2101      C2102   1.414   1_655  A
C2101      C2106   1.425       .  A
C2102      C2103   1.407       .  A
C2102      H2111   1.083       .  S
C2103      C2104   1.425   1_455  A
C2103      S2107   1.802       .  S
C2104      C2105   1.414       .  A
C2105      C2106   1.404       .  A
C2105      H2112   1.082       .  S
C2106      S2108   1.807       .  S
S2107      H2110   1.402       .  S
S2108      H2109   1.401       .  S
C2113      C2114   1.422       .  A
C2113      C2118   1.426       .  A
C2114      C2115   1.423       .  A
C2114      H2123   1.082       .  S
C2115      C2116   1.428       .  A
C2115      S2119   1.794       .  S
C2116      C2117   1.414       .  A
C2117      C2118   1.412       .  A
C2117      H2124   1.080       .  S
C2118      S2120   1.785       .  S
S2119      H2122   1.407       .  S
S2120      H2121   1.406       .  S
C2125      C2126   1.411       .  A
C2125      C2130   1.423       .  A
C2126      C2127   1.410   1_655  A
C2126      H2135   1.082       .  S
C2127      C2128   1.447       .  A
C2127      S2131   1.821       .  S
C2128      C2129   1.415       .  A
C2129      C2130   1.414   1_455  A
C2129      H2136   1.083       .  S
C2130      S2132   1.785       .  S
S2131      H2134   1.378       .  S
S2132      H2133   1.405       .  S
C2137      C2138   1.416   1_545  A
C2137      C2142   1.448       .  A
C2138      C2139   1.419       .  A
C2138      H2147   1.077       .  S
C2139      C2140   1.425   1_565  A
C2139      S2143   1.795       .  S
C2140      C2141   1.408       .  A
C2141      C2142   1.410       .  A
C2141      H2148   1.079       .  S
C2142      S2144   1.819       .  S
S2143      H2146   1.407       .  S
S2144      H2145   1.380       .  S
C2149      C2150   1.416       .  A
C2149      C2154   1.427   1_545  A
C2150      C2151   1.414       .  A
C2150      H2159   1.078       .  S
C2151      C2152   1.428       .  A
C2151      S2155   1.798       .  S
C2152      C2153   1.416   1_545  A
C2153      C2154   1.417       .  A
C2153      H2160   1.078       .  S
C2154      S2156   1.796       .  S
S2155      H2158   1.407       .  S
S2156      H2157   1.407       .  S
C2161      C2162   1.412   1_545  A
C2161      C2166   1.423       .  A
C2162      C2163   1.409       .  A
C2162      H2171   1.078       .  S
C2163      C2164   1.431   1_565  A
C2163      S2167   1.813       .  S
C2164      C2165   1.408       .  A
C2165      C2166   1.409       .  A
C2165      H2172   1.065       .  S
C2166      S2168   1.806       .  S
S2167      H2170   1.406       .  S
S2168      H2169   1.406       .  S
C2173      C2174   1.410       .  A
C2173      C2178   1.430       .  A
C2174      C2175   1.415       .  A
C2174      H2183   1.081       .  S
C2175      C2176   1.449       .  A
C2175      S2179   1.821       .  S
C2176      C2177   1.414       .  A
C2177      C2178   1.418       .  A
C2177      H2184   1.081       .  S
C2178      S2180   1.799       .  S
S2179      H2182   1.380       .  S
S2180      H2181   1.407       .  S
C2185      C2186   1.413       .  A
C2185      C2190   1.449       .  A
C2186      C2187   1.422       .  A
C2186      H2195   1.082       .  S
C2187      C2188   1.433       .  A
C2187      S2191   1.800       .  S
C2188      C2189   1.411       .  A
C2189      C2190   1.416       .  A
C2189      H2196   1.081       .  S
C2190      S2192   1.820       .  S
S2191      H2194   1.407       .  S
S2192      H2193   1.382       .  S
C2197      C2198   1.408       .  A
C2197      C2202   1.432   1_565  A
C2198      C2199   1.408   1_565  A
C2198      H2207   1.081       .  S
C2199      C2200   1.433       .  A
C2199      S2203   1.804       .  S
C2200      C2201   1.408       .  A
C2201      C2202   1.409       .  A
C2201      H2208   1.081       .  S
C2202      S2204   1.804   1_545  S
S2203      H2206   1.407       .  S
S2204      H2205   1.407   1_565  S
