geometry optimzed in LAMMPS
_audit_creation_date              2020-12-01 
_audit_creation_method            'lammps2cif' 
_symmetry_space_group_name_H-M    'P1' 
_symmetry_Int_Tables_number       1 
_symmetry_cell_setting            triclinic 
loop_ 
_symmetry_equiv_pos_as_xyz 
  x,y,z 
_cell_length_a                    37.71354089 
_cell_length_b                    37.49696530314036 
_cell_length_c                    34.19419636964988 
_cell_angle_alpha                 89.99842059154692 
_cell_angle_beta                  90.66525643103091 
_cell_angle_gamma                 120.353280838961 
loop_ 
_atom_site_label 
_atom_site_type_symbol 
_atom_site_fract_x 
_atom_site_fract_y 
_atom_site_fract_z 
_atom_site_charge 
C1          C  0.32794396  0.65911056  0.21530010     0.45400
H2          H  0.32197037  0.65485903  0.18324813    -0.03600
C3          C  0.34157742  0.67068434  0.29037428     0.45500
H4          H  0.34714984  0.67543747  0.32244792    -0.03600
C5          C  0.29075477  0.63063380  0.23987756    -0.17300
C6          C  0.36267478  0.65258488  0.22988033    -0.17000
C7          C  0.34045817  0.70257211  0.22928871    -0.17400
C8          C  0.29800226  0.63672827  0.27928190    -0.17400
C9          C  0.36940365  0.65804520  0.26959483    -0.17000
C10         C  0.34761652  0.70887424  0.26858092    -0.17300
C11         C  0.65331290  0.32079082  0.21024056     0.45400
H12         H  0.64631936  0.31641030  0.17833554    -0.03600
C13         C  0.67048711  0.33157973  0.28480526     0.45500
H14         H  0.67758363  0.33619777  0.31668344    -0.03600
C15         C  0.62496052  0.28309147  0.23471718    -0.17300
C16         C  0.69674048  0.33023864  0.22080334    -0.17000
C17         C  0.65083721  0.35684147  0.22822398    -0.17400
C18         C  0.63388899  0.28923803  0.27388912    -0.17400
C19         C  0.70573636  0.33564580  0.26001579    -0.17000
C20         C  0.65948814  0.36230063  0.26746102    -0.17300
O21         O  0.03521850  0.45634353  0.04755997    -0.74500
O22         O  0.95929056  0.41815819  0.45515415    -0.74500
O23         O  0.04186255  0.46024715  0.46550161    -0.74500
O24         O  0.95247586  0.41454505  0.03659393    -0.74600
O25         O  0.95231647  0.47392777  0.03468748    -0.74500
O26         O  0.04265967  0.52014561  0.46621921    -0.74500
O27         O  0.96052795  0.47820431  0.45358683    -0.74500
O28         O  0.03429006  0.51532926  0.04801762    -0.74500
Ni29       Ni  0.99586445  0.43498598  0.49943286     1.25400
Ni30       Ni  0.99601550  0.49878220  0.49875108     1.25400
C31         C  0.04697887  0.49208978  0.06231415     0.87700
C32         C  0.94756376  0.44176817  0.43990061     0.87700
C33         C  0.05775530  0.49805431  0.45522810     0.87700
C34         C  0.93650801  0.43643209  0.04575368     0.87900
O35         O  0.53390548  0.49399026  0.03410648    -0.74500
O36         O  0.50315857  0.53814436  0.45355951    -0.74500
O37         O  0.54285328  0.49634268  0.45692970    -0.74500
O38         O  0.49441713  0.53673797  0.03039569    -0.74600
O39         O  0.55439124  0.59528307  0.03861399    -0.74500
O40         O  0.60271974  0.55551451  0.46220897    -0.74500
O41         O  0.56202041  0.59823994  0.46033252    -0.74500
O42         O  0.59434975  0.55226219  0.04067390    -0.74500
Ni43       Ni  0.51724062  0.51304325  0.49407391     1.25400
Ni44       Ni  0.58112960  0.57659699  0.50091939     1.25400
C45         C  0.56938572  0.51480942  0.05031705     0.87700
C46         C  0.52707451  0.57560572  0.44353209     0.87700
C47         C  0.58018207  0.51958156  0.44683672     0.87700
C48         C  0.51621363  0.57221781  0.04649562     0.87900
O49         O  0.47183820  0.96826768  0.45847853    -0.74500
O50         O  0.49346847  0.02788834  0.05008559    -0.74500
O51         O  0.45672516  0.94725017  0.03193378    -0.74500
O52         O  0.50852348  0.04920188  0.47636712    -0.74600
O53         O  0.44781716  0.04558634  0.47032866    -0.74500
O54         O  0.39652584  0.94514038  0.02988334    -0.74500
O55         O  0.43434146  0.02770055  0.04459892    -0.74500
O56         O  0.41029128  0.96305244  0.45556069    -0.74500
Ni57       Ni  0.48322084  0.99656067  0.00309245     1.25400
Ni58       Ni  0.41850614  0.99364272  0.99840846     1.25400
C59         C  0.43641180  0.95390161  0.44227225     0.87700
C60         C  0.46859583  0.03906576  0.06232851     0.87700
C61         C  0.41873660  0.92986562  0.04048616     0.87700
C62         C  0.48638183  0.06372113  0.46374487     0.87900
C63         C  0.48123613  0.06743732  0.09601513    -0.01300
C64         C  0.50620466  0.06550991  0.12550392    -0.09300
C65         C  0.52506603  0.09693823  0.15343064    -0.18200
C66         C  0.52057231  0.13213227  0.15175284     0.04200
C67         C  0.49322152  0.13264991  0.12300493     0.18400
C68         C  0.47325835  0.10002627  0.09599585    -0.19600
C69         C  0.48782147  0.16680290  0.11986390    -0.20900
C70         C  0.51071465  0.20152541  0.14323527    -0.19400
C71         C  0.53942513  0.20279744  0.17033643     0.19800
C72         C  0.54395665  0.16775733  0.17591891     0.01900
C73         C  0.57320086  0.17078634  0.20408197    -0.14100
C74         C  0.59854514  0.20789414  0.22387749    -0.11800
C75         C  0.59513200  0.24275608  0.21672810     0.01500
C76         C  0.56478296  0.23961197  0.19082707    -0.24000
H77         H  0.51224818  0.04016900  0.12617838     0.09500
H78         H  0.54436075  0.09358810  0.17481278     0.13000
H79         H  0.45406188  0.10164639  0.07300879     0.11800
H80         H  0.46683589  0.16726398  0.09821239     0.12900
H81         H  0.50687773  0.22806123  0.13920978     0.12000
H82         H  0.57805097  0.14548443  0.21072257     0.09100
H83         H  0.62180995  0.20973147  0.24402105     0.12300
H84         H  0.56111661  0.26586584  0.18608965     0.14200
C85         C  0.61073608  0.25884651  0.30372718    -0.01300
C86         C  0.56803008  0.23999409  0.30478559    -0.09300
C87         C  0.54614069  0.21065820  0.33305141    -0.18200
C88         C  0.56680072  0.19956763  0.36091991     0.04200
C89         C  0.61042992  0.21956919  0.35956430     0.18400
C90         C  0.63189254  0.24925666  0.33133725    -0.19600
C91         C  0.63240361  0.20917331  0.38571064    -0.20900
C92         C  0.61180593  0.17809597  0.41261863    -0.19400
C93         C  0.56894222  0.15729551  0.41412351     0.19800
C94         C  0.54576136  0.16839088  0.38915766     0.01900
C95         C  0.50251817  0.14700376  0.39294138    -0.14100
C96         C  0.48304709  0.11383119  0.41839315    -0.11800
C97         C  0.50618554  0.10154951  0.44078829     0.01500
C98         C  0.54905700  0.12437345  0.43967653    -0.24000
H99         H  0.55161805  0.24801693  0.28363650     0.09500
H100        H  0.51323430  0.19685588  0.33182084     0.13000
H101        H  0.66511542  0.26414669  0.33006437     0.11800
H102        H  0.66563854  0.22448441  0.38471532     0.12900
H103        H  0.62945985  0.16978420  0.43191533     0.10300
H104        H  0.48284116  0.15454833  0.37622474     0.09100
H105        H  0.44979768  0.09695163  0.41953903     0.12300
H106        H  0.56717575  0.11564479  0.45786405     0.14200
C107        C  0.74663154  0.35031590  0.27749398    -0.01300
C108        C  0.75637103  0.32211413  0.29360319    -0.09300
C109        C  0.79211347  0.33591747  0.31613550    -0.18200
C110        C  0.81861804  0.37859892  0.32387785     0.04200
C111        C  0.80881300  0.40699527  0.30626012     0.18400
C112        C  0.77326395  0.39262770  0.28297995    -0.19600
C113        C  0.83339648  0.44941740  0.31352605    -0.20900
C114        C  0.86647018  0.46426057  0.33953505    -0.19400
C115        C  0.87608241  0.43707753  0.35847530     0.19800
C116        C  0.85319269  0.39400392  0.34997503     0.01900
C117        C  0.86513567  0.36816626  0.36900864    -0.14100
C118        C  0.89670577  0.38407097  0.39704150    -0.11800
C119        C  0.91751475  0.42614834  0.40700725     0.01500
C120        C  0.90772310  0.45263641  0.38680413    -0.24000
H121        H  0.73550841  0.28921956  0.28979622     0.09500
H122        H  0.79720141  0.31236554  0.32833135     0.13000
H123        H  0.76505460  0.41423507  0.27075963     0.11800
H124        H  0.82617597  0.47116735  0.29999120     0.12900
H125        H  0.88413068  0.49717694  0.34551059     0.12000
H126        H  0.85029914  0.33543262  0.36335779     0.09100
H127        H  0.90397709  0.36296076  0.41181793     0.12300
H128        H  0.92406467  0.48537021  0.39381048     0.14200
C129        C  0.89875920  0.41833496  0.06853215    -0.01300
C130        C  0.87653145  0.43887436  0.07046986    -0.09300
C131        C  0.84072385  0.42261173  0.09176597    -0.18200
C132        C  0.82615528  0.38523143  0.11232045     0.04200
C133        C  0.84890663  0.36450163  0.11047036     0.18400
C134        C  0.88453004  0.38079839  0.08804077    -0.19600
C135        C  0.83672001  0.32849459  0.13204929    -0.20900
C136        C  0.80364529  0.31394047  0.15722105    -0.19400
C137        C  0.78130495  0.33431004  0.16020222     0.19800
C138        C  0.79100057  0.36898139  0.13624004     0.01900
C139        C  0.76564931  0.38660103  0.13792309    -0.14100
C140        C  0.73443069  0.37284605  0.16490543    -0.11800
C141        C  0.72749148  0.34119791  0.19060923     0.01500
C142        C  0.74989353  0.32100908  0.18760591    -0.24000
H143        H  0.88683510  0.46784984  0.05542697     0.09500
H144        H  0.82605517  0.44088026  0.09252015     0.13000
H145        H  0.90180807  0.36489103  0.08672485     0.11800
H146        H  0.85380562  0.31241512  0.13057412     0.12900
H147        H  0.79583517  0.28696736  0.17481681     0.12000
H148        H  0.76916007  0.41111274  0.11900586     0.09100
H149        H  0.71638029  0.38790079  0.16649040     0.12300
H150        H  0.74320067  0.29547987  0.20692766     0.14200
C151        C  0.63983226  0.38258779  0.20470160    -0.01300
C152        C  0.66479880  0.42555694  0.20445445    -0.09300
C153        C  0.65425672  0.44933786  0.18105220    -0.18200
C154        C  0.61829705  0.43032017  0.15727351     0.04200
C155        C  0.59303990  0.38660813  0.15858422     0.18400
C156        C  0.60408865  0.36349790  0.18214156    -0.19600
C157        C  0.55692485  0.36590448  0.13623491    -0.20900
C158        C  0.54531644  0.38778907  0.11197006    -0.19400
C159        C  0.56970895  0.43072953  0.10949995     0.19800
C160        C  0.60653210  0.45279808  0.13204354     0.01900
C161        C  0.63012154  0.49620142  0.12778637    -0.14100
C162        C  0.61785145  0.51658635  0.10167528    -0.11800
C163        C  0.58167322  0.49438377  0.07952957     0.01500
C164        C  0.55760802  0.45160073  0.08394884    -0.24000
H165        H  0.69273284  0.44063722  0.22202868     0.09500
H166        H  0.67485735  0.48227401  0.18209871     0.13000
H167        H  0.58450912  0.33057340  0.18328757     0.11800
H168        H  0.53766916  0.33255460  0.13736010     0.12900
H169        H  0.51726615  0.37096861  0.09473390     0.12000
H170        H  0.65839355  0.51517357  0.14373198     0.09100
H171        H  0.63689266  0.54976844  0.09863866     0.12300
H172        H  0.52966605  0.43410111  0.06667380     0.14200
C173        C  0.59632290  0.50359759  0.41696084    -0.01300
C174        C  0.63752845  0.51400806  0.41694270    -0.09300
C175        C  0.65062429  0.49383776  0.39152691    -0.18200
C176        C  0.62258939  0.46276861  0.36536281     0.04200
C177        C  0.58143132  0.45453386  0.36410363     0.18400
C178        C  0.56883739  0.47477690  0.38974666    -0.19600
C179        C  0.55259800  0.42534135  0.33798526    -0.20900
C180        C  0.56345845  0.40320860  0.31341532    -0.19400
C181        C  0.60318331  0.40933608  0.31490519     0.19800
C182        C  0.63347301  0.43909542  0.34084390     0.01900
C183        C  0.67274656  0.44274859  0.34186541    -0.14100
C184        C  0.68134430  0.41784072  0.31801945    -0.11800
C185        C  0.65140294  0.38941016  0.29224786     0.01500
C186        C  0.61245531  0.38511062  0.29098275    -0.24000
H187        H  0.65926462  0.53654907  0.43763467     0.09500
H188        H  0.68262072  0.50280453  0.39335829     0.13000
H189        H  0.53703407  0.46732590  0.38912104     0.11800
H190        H  0.52128762  0.41928293  0.33682546     0.12900
H191        H  0.54039375  0.38056430  0.29362358     0.12000
H192        H  0.69710005  0.46395961  0.36120482     0.09100
H193        H  0.71146858  0.42089021  0.31953053     0.12300
H194        H  0.58894627  0.36205039  0.27175661     0.14200
C195        C  0.24985429  0.60476682  0.22183640    -0.01300
C196        C  0.22045571  0.61681412  0.22445287    -0.09300
C197        C  0.18373418  0.59593053  0.20308383    -0.18200
C198        C  0.17562641  0.56233037  0.17831941     0.04200
C199        C  0.20439281  0.54835647  0.17847228     0.18400
C200        C  0.24142082  0.57002276  0.19972939    -0.19600
C201        C  0.19663919  0.51369367  0.15640499    -0.20900
C202        C  0.16178134  0.49366518  0.13263889    -0.19400
C203        C  0.13457574  0.50863801  0.12945966     0.19800
C204        C  0.14088526  0.54302531  0.15243226     0.01900
C205        C  0.11353921  0.55805989  0.14674360    -0.14100
C206        C  0.08244441  0.54079078  0.11824708    -0.11800
C207        C  0.07687661  0.50740182  0.09525029     0.01500
C208        C  0.10225515  0.49066203  0.10192744    -0.24000
H209        H  0.22663567  0.64344929  0.24203245     0.09500
H210        H  0.16262086  0.60712842  0.20612878     0.13000
H211        H  0.26413234  0.56044765  0.19847986     0.11800
H212        H  0.21807290  0.50246067  0.15696730     0.12900
H213        H  0.15699994  0.46732541  0.11535606     0.12000
H214        H  0.11646139  0.58425286  0.16262197     0.09100
H215        H  0.06310065  0.55414697  0.11372798     0.12300
H216        H  0.09839480  0.46502531  0.08403630     0.14200
C217        C  0.09434161  0.51687435  0.43081619    -0.01300
C218        C  0.10562722  0.49219814  0.40995935    -0.09300
C219        C  0.14027102  0.51018866  0.38659798    -0.18200
C220        C  0.16482238  0.55365165  0.38369429     0.04200
C221        C  0.15371090  0.57844164  0.40594381     0.18400
C222        C  0.11855102  0.55992336  0.42884141    -0.19600
C223        C  0.17763788  0.62156335  0.40520297    -0.20900
C224        C  0.21233659  0.64082952  0.38223337    -0.19400
C225        C  0.22325612  0.61734284  0.35896452     0.19800
C226        C  0.19969506  0.57339930  0.35926344     0.01900
C227        C  0.21139795  0.55121117  0.33421176    -0.14100
C228        C  0.24415839  0.57192614  0.30897160    -0.11800
C229        C  0.26637315  0.61499126  0.30853426     0.01500
C230        C  0.25684441  0.63761101  0.33426766    -0.24000
H231        H  0.08738613  0.45880492  0.41138585     0.09500
H232        H  0.14701185  0.48918567  0.37143566     0.13000
H233        H  0.11026080  0.57918137  0.44551758     0.11800
H234        H  0.16937505  0.64050590  0.42239437     0.12900
H235        H  0.23021493  0.67431205  0.38198568     0.12000
H236        H  0.19523428  0.51798712  0.33246915     0.09100
H237        H  0.25181950  0.55431367  0.28919407     0.12300
H238        H  0.27436916  0.67107498  0.33363574     0.14200
C239        C  0.38727584  0.64352295  0.20254867    -0.01300
C240        C  0.43009488  0.66339933  0.20651397    -0.09300
C241        C  0.45298904  0.65366047  0.18158867    -0.18200
C242        C  0.43362194  0.62428239  0.15118407     0.04200
C243        C  0.39040635  0.60621904  0.14593096     0.18400
C244        C  0.36775869  0.61564688  0.17173835    -0.19600
C245        C  0.36991725  0.57865799  0.11507589    -0.20900
C246        C  0.39134958  0.56798972  0.08952479    -0.19400
C247        C  0.43357714  0.58403206  0.09474831     0.19800
C248        C  0.45546482  0.61233120  0.12565755     0.01900
C249        C  0.49805719  0.62687895  0.12987606    -0.14100
C250        C  0.51803727  0.61425493  0.10399712    -0.11800
C251        C  0.49608819  0.58648706  0.07368729     0.01500
C252        C  0.45395908  0.57153842  0.06926552    -0.24000
H253        H  0.44598603  0.68655479  0.22909445     0.09500
H254        H  0.48573954  0.66997531  0.18659213     0.13000
H255        H  0.33468172  0.60065525  0.16817837     0.11800
H256        H  0.33707707  0.56522630  0.11069791     0.12900
H257        H  0.37465960  0.54654834  0.06584129     0.12000
H258        H  0.51664820  0.64758926  0.15307190     0.09100
H259        H  0.55057936  0.62569530  0.10808209     0.12300
H260        H  0.43688640  0.55013203  0.04563849     0.14200
C261        C  0.39686753  0.64802639  0.29165397    -0.01300
C262        C  0.39500496  0.61042050  0.28481842    -0.09300
C263        C  0.42000909  0.59991397  0.30582771    -0.18200
C264        C  0.44711643  0.62651756  0.33523588     0.04200
C265        C  0.44853497  0.66460118  0.34231579     0.18400
C266        C  0.42354567  0.67507126  0.32036248    -0.19600
C267        C  0.47410647  0.69144211  0.37182774    -0.20900
C268        C  0.49733126  0.68058493  0.39548974    -0.19400
C269        C  0.49574182  0.64284166  0.38986782     0.19800
C270        C  0.47140868  0.61575860  0.35897419     0.01900
C271        C  0.47122526  0.57825931  0.35406276    -0.14100
C272        C  0.49125498  0.56649941  0.38077850    -0.11800
C273        C  0.51305211  0.59214892  0.41233007     0.01500
C274        C  0.51682268  0.63102307  0.41599827    -0.24000
H275        H  0.37364592  0.58872992  0.26333691     0.09500
H276        H  0.41646739  0.57028601  0.29887957     0.13000
H277        H  0.42460129  0.70410961  0.32571501     0.11800
H278        H  0.47539783  0.72056028  0.37724452     0.12900
H279        H  0.51598641  0.70143948  0.41883678     0.12000
H280        H  0.45503524  0.55669894  0.33063085     0.09100
H281        H  0.48879940  0.53658108  0.37737358     0.12300
H282        H  0.53381228  0.65077509  0.44063559     0.14200
C283        C  0.40124192  0.89202672  0.06338684    -0.01300
C284        C  0.36490425  0.87828573  0.08399215    -0.09300
C285        C  0.35168716  0.84536268  0.10974882    -0.18200
C286        C  0.37489505  0.82565318  0.11556769     0.04200
C287        C  0.40999632  0.83792180  0.09209228     0.18400
C288        C  0.42271440  0.87076214  0.06637811    -0.19600
C289        C  0.43302012  0.81827012  0.09518729    -0.20900
C290        C  0.42250656  0.78707557  0.12210436    -0.19400
C291        C  0.38938557  0.77570914  0.14694621     0.19800
C292        C  0.36509833  0.79484414  0.14426059     0.01900
C293        C  0.33300949  0.78328000  0.17131535    -0.14100
C294        C  0.32535507  0.75371905  0.19965233    -0.11800
C295        C  0.34919412  0.73504327  0.20131560     0.01500
C296        C  0.38079988  0.74566962  0.17501732    -0.24000
H297        H  0.34746520  0.89392721  0.08129709     0.09500
H298        H  0.32361681  0.83651340  0.12498950     0.13000
H299        H  0.45025915  0.88058112  0.04944372     0.11800
H300        H  0.45958310  0.82740683  0.07699595     0.12900
H301        H  0.44097368  0.77245082  0.12416435     0.12000
H302        H  0.31378597  0.79687938  0.17178253     0.09100
H303        H  0.30051593  0.74501495  0.21998989     0.12300
H304        H  0.39907546  0.73077951  0.17686390     0.14200
C305        C  0.36207042  0.74878472  0.28831377    -0.01300
C306        C  0.40406935  0.77668645  0.29253485    -0.09300
C307        C  0.41801429  0.81339004  0.31357923    -0.18200
C308        C  0.38996336  0.82279948  0.33142257     0.04200
C309        C  0.34721104  0.79458969  0.32573095     0.18400
C310        C  0.33374845  0.75806909  0.30416463    -0.19600
C311        C  0.31812667  0.80245157  0.34238620    -0.20900
C312        C  0.33049116  0.83718862  0.36572926    -0.19400
C313        C  0.37223324  0.86478521  0.37312647     0.19800
C314        C  0.40264671  0.85837877  0.35564366     0.01900
C315        C  0.44434248  0.88705010  0.36439245    -0.14100
C316        C  0.45517311  0.91920053  0.39104629    -0.11800
C317        C  0.42501652  0.92434178  0.40940223     0.01500
C318        C  0.38365211  0.89782951  0.39927438    -0.24000
H319        H  0.42613350  0.76970507  0.27995366     0.09500
H320        H  0.45083774  0.83332838  0.31584547     0.13000
H321        H  0.30115992  0.73640878  0.30022131     0.11800
H322        H  0.28554010  0.78115568  0.33793206     0.12900
H323        H  0.30718448  0.84196991  0.37886182     0.12000
H324        H  0.46931341  0.88480477  0.35210406     0.09100
H325        H  0.48740428  0.93947198  0.39814633     0.12300
H326        H  0.36006392  0.90144316  0.41343320     0.14200
C327        C  0.32635398  0.65662079  0.71198921     0.45400
H328        H  0.32091601  0.65228696  0.67987356    -0.03600
C329        C  0.33885365  0.66846929  0.78715750     0.45500
H330        H  0.34397642  0.67336640  0.81926283    -0.03600
C331        C  0.28866519  0.62845885  0.73615959    -0.17300
C332        C  0.36071847  0.64992027  0.72742370    -0.17000
C333        C  0.33887304  0.70016917  0.72565905    -0.17400
C334        C  0.29532235  0.63469159  0.77563358    -0.17400
C335        C  0.36685409  0.65556335  0.76718306    -0.17000
C336        C  0.34548003  0.70663582  0.76498295    -0.17300
C337        C  0.65643775  0.32286970  0.71426676     0.45400
H338        H  0.64949390  0.31842682  0.68235247    -0.03600
C339        C  0.67329086  0.33369948  0.78889644     0.45500
H340        H  0.68022975  0.33834429  0.82079887    -0.03600
C341        C  0.62781533  0.28535215  0.73873910    -0.17300
C342        C  0.69973129  0.33207708  0.72502706    -0.17000
C343        C  0.65416060  0.35907983  0.73204835    -0.17400
C344        C  0.63648127  0.29150346  0.77793616    -0.17400
C345        C  0.70854743  0.33741322  0.76427839    -0.17000
C346        C  0.66269733  0.36461918  0.77127923    -0.17300
O347        O  0.03250639  0.45606968  0.54365623    -0.74500
O348        O  0.96254735  0.41900976  0.95863369    -0.74500
O349        O  0.04505109  0.46087952  0.96939458    -0.74500
O350        O  0.94976006  0.41405480  0.53324109    -0.74600
O351        O  0.94938367  0.47332482  0.53123056    -0.74500
O352        O  0.04607265  0.52088767  0.97026582    -0.74500
O353        O  0.96400795  0.47916811  0.95719432    -0.74500
O354        O  0.03144734  0.51498529  0.54400433    -0.74500
Ni355      Ni  0.99885568  0.43555669  0.00310771     1.25400
Ni356      Ni  0.99921653  0.49945961  0.00255329     1.25400
C357        C  0.04434932  0.49189866  0.55825193     0.87700
C358        C  0.95095609  0.44274679  0.94342481     0.87700
C359        C  0.06098549  0.49868815  0.95909770     0.87700
C360        C  0.93389642  0.43597078  0.54263538     0.87900
O361        O  0.53571312  0.49197974  0.53482994    -0.74500
O362        O  0.50298769  0.54130260  0.95262735    -0.74500
O363        O  0.54180144  0.49865504  0.95635057    -0.74500
O364        O  0.49531752  0.53380912  0.53139893    -0.74600
O365        O  0.55490607  0.59286093  0.53912891    -0.74500
O366        O  0.60195899  0.55744316  0.96203438    -0.74500
O367        O  0.56215755  0.60103298  0.95987819    -0.74500
O368        O  0.59578123  0.55072779  0.54098877    -0.74500
Ni369      Ni  0.51622874  0.51566972  0.99324669     1.25400
Ni370      Ni  0.58048818  0.57875992  0.00057614     1.25400
C371        C  0.57119579  0.51328756  0.55093278     0.87700
C372        C  0.52734009  0.57871492  0.94275826     0.87700
C373        C  0.57930541  0.52156126  0.94661520     0.87700
C374        C  0.51683444  0.56945572  0.54726170     0.87900
O375        O  0.46876676  0.96484136  0.95590836    -0.74500
O376        O  0.49711969  0.03138547  0.55257995    -0.74500
O377        O  0.46036172  0.95075239  0.53449598    -0.74500
O378        O  0.50553748  0.04571954  0.97393211    -0.74600
O379        O  0.44499776  0.04236639  0.96732972    -0.74500
O380        O  0.40010315  0.94853495  0.53282911    -0.74500
O381        O  0.43787281  0.03102205  0.54768718    -0.74500
O382        O  0.40732234  0.95982401  0.95253564    -0.74500
Ni383      Ni  0.48657681  0.00006899  0.50559583     1.25400
Ni384      Ni  0.42174435  0.99695949  0.50145087     1.25400
C385        C  0.43351216  0.95071029  0.93938679     0.87700
C386        C  0.47225129  0.04239299  0.56518929     0.87700
C387        C  0.42237179  0.93323923  0.54309684     0.87700
C388        C  0.48365503  0.06046578  0.96116152     0.87900
C389        C  0.48500963  0.07043947  0.59914895    -0.01300
C390        C  0.51105313  0.06897844  0.62774981    -0.09300
C391        C  0.52988167  0.10016072  0.65588917    -0.18200
C392        C  0.52419053  0.13464255  0.65537835     0.04200
C393        C  0.49580351  0.13465714  0.62756770     0.18400
C394        C  0.47593282  0.10225897  0.60031045    -0.19600
C395        C  0.48925698  0.16815393  0.62557026    -0.20900
C396        C  0.51203079  0.20278561  0.64908744    -0.19400
C397        C  0.54171485  0.20459411  0.67524185     0.19800
C398        C  0.54736463  0.17011013  0.67977037     0.01900
C399        C  0.57740932  0.17354683  0.70715816    -0.14100
C400        C  0.60253381  0.21061524  0.72707152    -0.11800
C401        C  0.59813491  0.24501517  0.72076586     0.01500
C402        C  0.56691159  0.24138558  0.69581959    -0.24000
H403        H  0.51796979  0.04422710  0.62754059     0.09500
H404        H  0.55008836  0.09723499  0.67646492     0.13000
H405        H  0.45588878  0.10352453  0.57803482     0.11800
H406        H  0.46747115  0.16821953  0.60465480     0.12900
H407        H  0.50731385  0.22886612  0.64590198     0.12000
H408        H  0.58302249  0.14860869  0.71310940     0.09100
H409        H  0.62639155  0.21283690  0.74663139     0.12300
H410        H  0.56240958  0.26727253  0.69191454     0.14200
C411        C  0.61264712  0.26118144  0.80760256    -0.01300
C412        C  0.56993109  0.24260845  0.80786817    -0.09300
C413        C  0.54721004  0.21242370  0.83517972    -0.18200
C414        C  0.56701519  0.20012165  0.86284415     0.04200
C415        C  0.61070111  0.22020632  0.86263033     0.18400
C416        C  0.63301566  0.25081492  0.83538921    -0.19600
C417        C  0.63188357  0.20882303  0.88876122    -0.20900
C418        C  0.61047161  0.17663701  0.91441599    -0.19400
C419        C  0.56755202  0.15563329  0.91463998     0.19800
C420        C  0.54509854  0.16765342  0.88971226     0.01900
C421        C  0.50170463  0.14583261  0.89208856    -0.14100
C422        C  0.48150045  0.11166383  0.91633125    -0.11800
C423        C  0.50402084  0.09873546  0.93884997     0.01500
C424        C  0.54693209  0.12168170  0.93891978    -0.24000
H425        H  0.55413210  0.25132588  0.78666273     0.09500
H426        H  0.51435600  0.19886460  0.83329228     0.13000
H427        H  0.66625991  0.26557204  0.83479660     0.11800
H428        H  0.66515075  0.22420578  0.88867057     0.12900
H429        H  0.62755658  0.16760778  0.93370184     0.10300
H430        H  0.48247923  0.15383287  0.87518983     0.09100
H431        H  0.44821712  0.09464528  0.91653588     0.12300
H432        H  0.56456258  0.11241011  0.95718344     0.14200
C433        C  0.74937892  0.35200633  0.78184940    -0.01300
C434        C  0.75923254  0.32373048  0.79756703    -0.09300
C435        C  0.79504132  0.33743203  0.81998077    -0.18200
C436        C  0.82150509  0.38007095  0.82796450     0.04200
C437        C  0.81153231  0.40853522  0.81078535     0.18400
C438        C  0.77591615  0.39427968  0.78764337    -0.19600
C439        C  0.83604434  0.45090808  0.81831732    -0.20900
C440        C  0.86924645  0.46563265  0.84414727    -0.19400
C441        C  0.87906693  0.43838317  0.86262653     0.19800
C442        C  0.85622571  0.39536574  0.85386649     0.01900
C443        C  0.86838613  0.36947629  0.87244591    -0.14100
C444        C  0.90011866  0.38526689  0.90032003    -0.11800
C445        C  0.92087627  0.42727724  0.91055522     0.01500
C446        C  0.91087291  0.45382239  0.89076817    -0.24000
H447        H  0.73842535  0.29085541  0.79353094     0.09500
H448        H  0.80023892  0.31383542  0.83187473     0.13000
H449        H  0.76762282  0.41593449  0.77570823     0.11800
H450        H  0.82868283  0.47270454  0.80512325     0.12900
H451        H  0.88685940  0.49850748  0.85033756     0.12000
H452        H  0.85359221  0.33678709  0.86656201     0.09100
H453        H  0.90754416  0.36411439  0.91477912     0.12300
H454        H  0.92715041  0.48650394  0.89799422     0.14200
C455        C  0.89685559  0.41818232  0.56641528    -0.01300
C456        C  0.87466437  0.43870484  0.56898423    -0.09300
C457        C  0.83994179  0.42310422  0.59181225    -0.18200
C458        C  0.82645819  0.38641469  0.61329136     0.04200
C459        C  0.84903067  0.36555911  0.61057364     0.18400
C460        C  0.88357101  0.38121581  0.58668473    -0.19600
C461        C  0.83777370  0.33006229  0.63267431    -0.20900
C462        C  0.80572220  0.31602281  0.65901057    -0.19400
C463        C  0.78357728  0.33650962  0.66285764     0.19800
C464        C  0.79250603  0.37088569  0.63872882     0.01900
C465        C  0.76757435  0.38887953  0.64165499    -0.14100
C466        C  0.73719980  0.37539184  0.66947144    -0.11800
C467        C  0.73063498  0.34363477  0.69487442     0.01500
C468        C  0.75296867  0.32345373  0.69111614    -0.24000
H469        H  0.88423035  0.46722009  0.55334335     0.09500
H470        H  0.82526283  0.44134374  0.59286575     0.13000
H471        H  0.90082562  0.36531530  0.58485216     0.11800
H472        H  0.85473467  0.31389893  0.63054554     0.12900
H473        H  0.79853195  0.28932309  0.67678625     0.12000
H474        H  0.77065438  0.41341380  0.62303385     0.09100
H475        H  0.71929992  0.39055195  0.67172242     0.12300
H476        H  0.74664133  0.29792340  0.71029507     0.14200
C477        C  0.64274298  0.38444680  0.70848254    -0.01300
C478        C  0.66796585  0.42734821  0.70717239    -0.09300
C479        C  0.65721116  0.45067857  0.68333879    -0.18200
C480        C  0.62075765  0.43125794  0.66025822     0.04200
C481        C  0.59510203  0.38766648  0.66292251     0.18400
C482        C  0.60639698  0.36502783  0.68685748    -0.19600
C483        C  0.55841792  0.36662506  0.64145859    -0.20900
C484        C  0.54667544  0.38799341  0.61664900    -0.19400
C485        C  0.57153005  0.43074237  0.61269860     0.19800
C486        C  0.60889149  0.45318012  0.63439505     0.01900
C487        C  0.63292370  0.49633765  0.62862770    -0.14100
C488        C  0.62053241  0.51610878  0.60189525    -0.11800
C489        C  0.58382116  0.49353085  0.58057777     0.01500
C490        C  0.55934348  0.45101330  0.58649106    -0.24000
H491        H  0.69630048  0.44267308  0.72414639     0.09500
H492        H  0.67805513  0.48358480  0.68346920     0.13000
H493        H  0.58659129  0.33214838  0.68896480     0.11800
H494        H  0.53883983  0.33338034  0.64365806     0.12900
H495        H  0.51819262  0.37089777  0.60008851     0.12000
H496        H  0.66163538  0.51554733  0.64383073     0.09100
H497        H  0.63989841  0.54909894  0.59773018     0.12300
H498        H  0.53094087  0.43321707  0.56993745     0.14200
C499        C  0.59565737  0.50519296  0.91731254    -0.01300
C500        C  0.63721665  0.51688736  0.91689149    -0.09300
C501        C  0.65081721  0.49668161  0.89212207    -0.18200
C502        C  0.62293996  0.46423283  0.86703977     0.04200
C503        C  0.58130255  0.45453444  0.86616704     0.18400
C504        C  0.56822008  0.47488421  0.89112259    -0.19600
C505        C  0.55252437  0.42384085  0.84111004    -0.20900
C506        C  0.56397009  0.40172331  0.81718684    -0.19400
C507        C  0.60426316  0.40940293  0.81828473     0.19800
C508        C  0.63448064  0.44063319  0.84320230     0.01900
C509        C  0.67441579  0.44585480  0.84389596    -0.14100
C510        C  0.68373677  0.42110393  0.82062467    -0.11800
C511        C  0.65383080  0.39128189  0.79579019     0.01500
C512        C  0.61424108  0.38535617  0.79492881    -0.24000
H513        H  0.65893110  0.54057291  0.93676516     0.09500
H514        H  0.68309789  0.50675017  0.89359021     0.13000
H515        H  0.53610793  0.46637001  0.89075660     0.11800
H516        H  0.52082958  0.41663119  0.84026086     0.12900
H517        H  0.54096168  0.37793536  0.79818303     0.12000
H518        H  0.69878690  0.46824739  0.86250150     0.09100
H519        H  0.71438055  0.42540440  0.82178461     0.12300
H520        H  0.59086889  0.36127816  0.77635969     0.14200
C521        C  0.24790349  0.60338569  0.71759512    -0.01300
C522        C  0.21924108  0.61645405  0.71957867    -0.09300
C523        C  0.18268166  0.59621604  0.69788534    -0.18200
C524        C  0.17394748  0.56219445  0.67345644     0.04200
C525        C  0.20206241  0.54739668  0.67401754     0.18400
C526        C  0.23897127  0.56845784  0.69555298    -0.19600
C527        C  0.19373658  0.51241325  0.65218984    -0.20900
C528        C  0.15885445  0.49270666  0.62842787    -0.19400
C529        C  0.13216641  0.50828343  0.62502743     0.19800
C530        C  0.13913322  0.54313193  0.64761935     0.01900
C531        C  0.11222921  0.55867901  0.64173967    -0.14100
C532        C  0.08086518  0.54135966  0.61348897    -0.11800
C533        C  0.07461244  0.50745605  0.59090715     0.01500
C534        C  0.09963447  0.49033042  0.59771917    -0.24000
H535        H  0.22587515  0.64334623  0.73697181     0.09500
H536        H  0.16216314  0.60818793  0.70048402     0.13000
H537        H  0.26116801  0.55819204  0.69466288     0.11800
H538        H  0.21469309  0.50060028  0.65301596     0.12900
H539        H  0.15358503  0.46603761  0.61140578     0.12000
H540        H  0.11564262  0.58522633  0.65733532     0.09100
H541        H  0.06183504  0.55505080  0.60885339     0.12300
H542        H  0.09526349  0.46429469  0.58015543     0.14200
C543        C  0.09707203  0.51721764  0.93400809    -0.01300
C544        C  0.10735364  0.49222289  0.91234904    -0.09300
C545        C  0.14079125  0.50983714  0.88746923    -0.18200
C546        C  0.16509447  0.55323396  0.88376065     0.04200
C547        C  0.15532672  0.57838481  0.90709454     0.18400
C548        C  0.12133397  0.56023583  0.93154303    -0.19600
C549        C  0.17938291  0.62148177  0.90581953    -0.20900
C550        C  0.21293443  0.64034003  0.88136198    -0.19400
C551        C  0.22242193  0.61646595  0.85701529     0.19800
C552        C  0.19852423  0.57255829  0.85761020     0.01900
C553        C  0.20846904  0.54996614  0.83123315    -0.14100
C554        C  0.24033567  0.57026073  0.80497898    -0.11800
C555        C  0.26331864  0.61330864  0.80468345     0.01500
C556        C  0.25505753  0.63630263  0.83119590    -0.24000
H557        H  0.08910798  0.45885532  0.91416572     0.09500
H558        H  0.14683201  0.48861455  0.87177282     0.13000
H559        H  0.11387299  0.57973799  0.94886705     0.11800
H560        H  0.17217525  0.64071496  0.92382559     0.12900
H561        H  0.23104367  0.67380623  0.88086462     0.12000
H562        H  0.19165822  0.51673933  0.82937255     0.09100
H563        H  0.24695206  0.55231862  0.78459952     0.12300
H564        H  0.27308960  0.66974774  0.83065279     0.14200
C565        C  0.38573853  0.64074100  0.70074057    -0.01300
C566        C  0.42855438  0.66090598  0.70502286    -0.09300
C567        C  0.45179463  0.65100412  0.68071412    -0.18200
C568        C  0.43279089  0.62117310  0.65060549     0.04200
C569        C  0.38955177  0.60269632  0.64509254     0.18400
C570        C  0.36657061  0.61232911  0.67026753    -0.19600
C571        C  0.36936071  0.57454437  0.61458257    -0.20900
C572        C  0.39111787  0.56377302  0.58956938    -0.19400
C573        C  0.43340528  0.58035729  0.59496057     0.19800
C574        C  0.45500736  0.60920127  0.62557056     0.01900
C575        C  0.49771437  0.62433944  0.62990264    -0.14100
C576        C  0.51807018  0.61180469  0.60435866    -0.11800
C577        C  0.49638177  0.58352220  0.57431080     0.01500
C578        C  0.45414090  0.56793719  0.56986299    -0.24000
H579        H  0.44416305  0.68439746  0.72738485     0.09500
H580        H  0.48451312  0.66753513  0.68594192     0.13000
H581        H  0.33349523  0.59710356  0.66649210     0.11800
H582        H  0.33650086  0.56075518  0.61003171     0.12900
H583        H  0.37464829  0.54189801  0.56611856     0.12000
H584        H  0.51612421  0.64553194  0.65288225     0.09100
H585        H  0.55070383  0.62376966  0.60846311     0.12300
H586        H  0.43725380  0.54615014  0.54643332     0.14200
C587        C  0.39453241  0.64636134  0.78991451    -0.01300
C588        C  0.39368439  0.60918132  0.78351838    -0.09300
C589        C  0.41938056  0.59977489  0.80475188    -0.18200
C590        C  0.44615692  0.62707159  0.83395565     0.04200
C591        C  0.44606065  0.66438965  0.84104176     0.18400
C592        C  0.42053621  0.67385612  0.81873545    -0.19600
C593        C  0.47062659  0.69141080  0.87092775    -0.20900
C594        C  0.49425160  0.68138585  0.89497067    -0.19400
C595        C  0.49441778  0.64454492  0.88908168     0.19800
C596        C  0.47142411  0.61756985  0.85761578     0.01900
C597        C  0.47358295  0.58141193  0.85196629    -0.14100
C598        C  0.49401137  0.57030781  0.87883801    -0.11800
C599        C  0.51395165  0.59542600  0.91123273     0.01500
C600        C  0.51586845  0.63341104  0.91546230    -0.24000
H601        H  0.37267993  0.58702612  0.76213022     0.09500
H602        H  0.41650953  0.57032737  0.79829136     0.13000
H603        H  0.42068298  0.70247509  0.82388475     0.11800
H604        H  0.47068265  0.71990786  0.87642446     0.12900
H605        H  0.51193598  0.70220931  0.91871317     0.12000
H606        H  0.45901790  0.56045994  0.82773297     0.09100
H607        H  0.49315808  0.54118250  0.87498042     0.12300
H608        H  0.53155117  0.65280220  0.94069828     0.14200
C609        C  0.40470664  0.89499992  0.56533338    -0.01300
C610        C  0.36748465  0.88020856  0.58463597    -0.09300
C611        C  0.35326802  0.84613670  0.60901814    -0.18200
C612        C  0.37632400  0.82626870  0.61476383     0.04200
C613        C  0.41254054  0.83981427  0.59266217     0.18400
C614        C  0.42630115  0.87386443  0.56833202    -0.19600
C615        C  0.43553308  0.82012759  0.59573174    -0.20900
C616        C  0.42393159  0.78770208  0.62141825    -0.19400
C617        C  0.38970022  0.77509246  0.64504170     0.19800
C618        C  0.36532443  0.79412453  0.64218820     0.01900
C619        C  0.33198872  0.78121215  0.66798017    -0.14100
C620        C  0.32352044  0.75080718  0.69556326    -0.11800
C621        C  0.34769149  0.73252966  0.69762141     0.01500
C622        C  0.38021948  0.74409249  0.67226658    -0.24000
H623        H  0.34993492  0.89572732  0.58184933     0.09500
H624        H  0.32448711  0.83648409  0.62321164     0.13000
H625        H  0.45457090  0.88453281  0.55236532     0.11800
H626        H  0.46293300  0.83021936  0.57854062     0.12900
H627        H  0.44245044  0.77314119  0.62358520     0.12000
H628        H  0.31249109  0.79450066  0.66819832     0.09100
H629        H  0.29797291  0.74133611  0.71519056     0.12300
H630        H  0.39870281  0.72944594  0.67444173     0.14200
C631        C  0.35986111  0.74667827  0.78444414    -0.01300
C632        C  0.40185062  0.77462872  0.78867665    -0.09300
C633        C  0.41574001  0.81137483  0.80963188    -0.18200
C634        C  0.38764022  0.82077495  0.82737392     0.04200
C635        C  0.34490176  0.79262567  0.82148848     0.18400
C636        C  0.33149420  0.75605024  0.80002694    -0.19600
C637        C  0.31577402  0.80056009  0.83792149    -0.20900
C638        C  0.32807079  0.83521558  0.86136330    -0.19400
C639        C  0.36978038  0.86261422  0.86912803     0.19800
C640        C  0.40025206  0.85622124  0.85176575     0.01900
C641        C  0.44190965  0.88467480  0.86091493    -0.14100
C642        C  0.45261425  0.91649866  0.88793268    -0.11800
C643        C  0.42236844  0.92154098  0.90622061     0.01500
C644        C  0.38108407  0.89536806  0.89559728    -0.24000
H645        H  0.42395136  0.76761935  0.77623323     0.09500
H646        H  0.44855777  0.83133563  0.81194809     0.13000
H647        H  0.29891496  0.73438854  0.79600942     0.11800
H648        H  0.28320076  0.77934512  0.83327267     0.12900
H649        H  0.30472528  0.84001864  0.87437253     0.12000
H650        H  0.46692336  0.88243725  0.84872305     0.09100
H651        H  0.48479367  0.93656850  0.89536933     0.12300
H652        H  0.35743125  0.89895396  0.90965303     0.14200
loop_ 
_geom_bond_atom_site_label_1 
_geom_bond_atom_site_label_2 
_geom_bond_distance 
_geom_bond_site_symmetry_2 
_ccdc_geom_bond_type 
C1            H2   1.111       .  S
C1            C7   1.525       .  S
C1            C6   1.527       .  S
C1            C5   1.526       .  S
C3            H4   1.112       .  S
C3            C9   1.533       .  S
C3            C8   1.529       .  S
C3           C10   1.527       .  S
C5            C8   1.368       .  D
C5          C195   1.472       .  S
C6            C9   1.375       .  D
C6          C239   1.479       .  S
C7           C10   1.364       .  D
C7          C295   1.452       .  S
C8          C229   1.460       .  S
C9          C261   1.469       .  S
C10         C305   1.469       .  S
C11          H12   1.112       .  S
C11          C17   1.531       .  S
C11          C16   1.529       .  S
C11          C15   1.528       .  S
C13          H14   1.112       .  S
C13          C19   1.527       .  S
C13          C18   1.529       .  S
C13          C20   1.526       .  S
C15          C18   1.368       .  D
C15          C75   1.482       .  S
C16          C19   1.369       .  D
C16         C141   1.458       .  S
C17          C20   1.368       .  D
C17         C151   1.466       .  S
C18          C85   1.455       .  S
C19         C107   1.470       .  S
C20         C185   1.471       .  S
O21          C31   1.281       .  A
O21        Ni355   1.916   1_455  S
O22          C32   1.281       .  A
O22         Ni29   1.914       .  S
O23          C33   1.280       .  A
O23         Ni29   1.908   1_455  S
O24          C34   1.280       .  A
O24        Ni355   1.909       .  S
O25          C34   1.278       .  A
O25        Ni356   1.894       .  S
O26          C33   1.278       .  A
O26         Ni30   1.896   1_455  S
O27          C32   1.282       .  A
O27         Ni30   1.918       .  S
O28          C31   1.282       .  A
O28        Ni356   1.918   1_455  S
Ni29        O347   1.915   1_655  S
Ni29        O350   1.909       .  S
Ni29        Ni30   2.389       .  S
Ni30        O351   1.894       .  S
Ni30        O354   1.919   1_655  S
C31         C207   1.478       .  S
C32         C119   1.481       .  S
C33         C217   1.463       .  S
C34         C129   1.464       .  S
O35          C45   1.278       .  A
O35        Ni369   1.893   1_554  S
O36          C46   1.277       .  A
O36         Ni43   1.891       .  S
O37          C47   1.277       .  A
O37         Ni43   1.892       .  S
O38          C48   1.278       .  A
O38        Ni369   1.896   1_554  S
O39          C48   1.282       .  A
O39        Ni370   1.921       .  S
O40          C47   1.283       .  A
O40         Ni44   1.928       .  S
O41          C46   1.280       .  A
O41         Ni44   1.916       .  S
O42          C45   1.280       .  A
O42        Ni370   1.910       .  S
Ni43        O361   1.893       .  S
Ni43        O364   1.896       .  S
Ni43        Ni44   2.392       .  S
Ni44        O365   1.923       .  S
Ni44        O368   1.910       .  S
C45         C163   1.465       .  S
C46         C273   1.456       .  S
C47         C173   1.469       .  S
C48         C251   1.468       .  S
O49          C59   1.280       .  A
O49        Ni383   1.907   1_565  S
O50          C60   1.280       .  A
O50         Ni57   1.907   1_545  S
O51          C61   1.276       .  A
O51         Ni57   1.883       .  S
O52          C62   1.277       .  A
O52        Ni383   1.886       .  S
O53          C62   1.279       .  A
O53        Ni384   1.907   1_545  S
O54          C61   1.280       .  A
O54         Ni58   1.911   1_554  S
O55          C60   1.282       .  A
O55         Ni58   1.921   1_544  S
O56          C59   1.283       .  A
O56        Ni384   1.922       .  S
Ni57        O375   1.908   1_554  S
Ni57        O378   1.885   1_564  S
Ni57        Ni58   2.391   1_554  S
Ni58        O379   1.909   1_565  S
Ni58        O382   1.921       .  S
C59         C317   1.478       .  S
C60          C63   1.470       .  S
C61         C283   1.459       .  S
C62          C97   1.459       .  S
C63          C64   1.398       .  A
C63          C68   1.398       .  A
C64          C65   1.394       .  A
C64          H77   1.084       .  S
C65          C66   1.414       .  A
C65          H78   1.077       .  S
C66          C72   1.427       .  A
C66          C67   1.424       .  A
C67          C69   1.399       .  A
C67          C68   1.403       .  A
C68          H79   1.085       .  S
C69          C70   1.388       .  A
C69          H80   1.084       .  S
C70          C71   1.399       .  A
C70          H81   1.084       .  S
C71          C72   1.421       .  A
C71          C76   1.400       .  A
C72          C73   1.416       .  A
C73          C74   1.396       .  A
C73          H82   1.077       .  S
C74          C75   1.398       .  A
C74          H83   1.083       .  S
C75          C76   1.396       .  A
C76          H84   1.073       .  S
C85          C86   1.395       .  A
C85          C90   1.389       .  A
C86          C87   1.388       .  A
C86          H99   1.084       .  S
C87          C88   1.414       .  A
C87         H100   1.077       .  S
C88          C94   1.417       .  A
C88          C89   1.424       .  A
C89          C91   1.395       .  A
C89          C90   1.390       .  A
C90         H101   1.085       .  S
C91          C92   1.382       .  A
C91         H102   1.084       .  S
C92          C93   1.397       .  A
C92         H103   1.084       .  S
C93          C94   1.420       .  A
C93          C98   1.389       .  A
C94          C95   1.415       .  A
C95          C96   1.391       .  A
C95         H104   1.077       .  S
C96          C97   1.397       .  A
C96         H105   1.083       .  S
C97          C98   1.397       .  A
C98         H106   1.085       .  S
C107        C108   1.394       .  A
C107        C112   1.395       .  A
C108        C109   1.396       .  A
C108        H121   1.084       .  S
C109        C110   1.417       .  A
C109        H122   1.077       .  S
C110        C116   1.429       .  A
C110        C111   1.423       .  A
C111        C113   1.398       .  A
C111        C112   1.402       .  A
C112        H123   1.085       .  S
C113        C114   1.389       .  A
C113        H124   1.084       .  S
C114        C115   1.399       .  A
C114        H125   1.084       .  S
C115        C116   1.422       .  A
C115        C120   1.404       .  A
C116        C117   1.414       .  A
C117        C118   1.396       .  A
C117        H126   1.077       .  S
C118        C119   1.401       .  A
C118        H127   1.083       .  S
C119        C120   1.402       .  A
C120        H128   1.084       .  S
C129        C130   1.398       .  A
C129        C134   1.400       .  A
C130        C131   1.384       .  A
C130        H143   1.083       .  S
C131        C132   1.411       .  A
C131        H144   1.077       .  S
C132        C138   1.417       .  A
C132        C133   1.421       .  A
C133        C135   1.400       .  A
C133        C134   1.400       .  A
C134        H145   1.084       .  S
C135        C136   1.390       .  A
C135        H146   1.084       .  S
C136        C137   1.399       .  A
C136        H147   1.084       .  S
C137        C138   1.422       .  A
C137        C142   1.400       .  A
C138        C139   1.412       .  A
C139        C140   1.384       .  A
C139        H148   1.077       .  S
C140        C141   1.393       .  A
C140        H149   1.084       .  S
C141        C142   1.395       .  A
C142        H150   1.085       .  S
C151        C152   1.396       .  A
C151        C156   1.388       .  A
C152        C153   1.394       .  A
C152        H165   1.084       .  S
C153        C154   1.416       .  A
C153        H166   1.077       .  S
C154        C160   1.421       .  A
C154        C155   1.421       .  A
C155        C157   1.396       .  A
C155        C156   1.389       .  A
C156        H167   1.073       .  S
C157        C158   1.381       .  A
C157        H168   1.084       .  S
C158        C159   1.397       .  A
C158        H169   1.084       .  S
C159        C160   1.422       .  A
C159        C164   1.391       .  A
C160        C161   1.415       .  A
C161        C162   1.394       .  A
C161        H170   1.077       .  S
C162        C163   1.399       .  A
C162        H171   1.083       .  S
C163        C164   1.397       .  A
C164        H172   1.085       .  S
C173        C174   1.398       .  A
C173        C178   1.398       .  A
C174        C175   1.400       .  A
C174        H187   1.083       .  S
C175        C176   1.417       .  A
C175        H188   1.078       .  S
C176        C182   1.427       .  A
C176        C177   1.421       .  A
C177        C179   1.397       .  A
C177        C178   1.395       .  A
C178        H189   1.085       .  S
C179        C180   1.383       .  A
C179        H190   1.084       .  S
C180        C181   1.397       .  A
C180        H191   1.084       .  S
C181        C182   1.423       .  A
C181        C186   1.394       .  A
C182        C183   1.417       .  A
C183        C184   1.398       .  A
C183        H192   1.078       .  S
C184        C185   1.396       .  A
C184        H193   1.083       .  S
C185        C186   1.394       .  A
C186        H194   1.085       .  S
C195        C196   1.396       .  A
C195        C200   1.395       .  A
C196        C197   1.395       .  A
C196        H209   1.084       .  S
C197        C198   1.415       .  A
C197        H210   1.077       .  S
C198        C204   1.428       .  A
C198        C199   1.423       .  A
C199        C201   1.398       .  A
C199        C200   1.403       .  A
C200        H211   1.084       .  S
C201        C202   1.389       .  A
C201        H212   1.084       .  S
C202        C203   1.400       .  A
C202        H213   1.084       .  S
C203        C204   1.422       .  A
C203        C208   1.403       .  A
C204        C205   1.415       .  A
C205        C206   1.396       .  A
C205        H214   1.077       .  S
C206        C207   1.400       .  A
C206        H215   1.083       .  S
C207        C208   1.402       .  A
C208        H216   1.084       .  S
C217        C218   1.397       .  A
C217        C222   1.398       .  A
C218        C219   1.391       .  A
C218        H231   1.083       .  S
C219        C220   1.414       .  A
C219        H232   1.077       .  S
C220        C226   1.420       .  A
C220        C221   1.421       .  A
C221        C223   1.398       .  A
C221        C222   1.395       .  A
C222        H233   1.085       .  S
C223        C224   1.386       .  A
C223        H234   1.084       .  S
C224        C225   1.397       .  A
C224        H235   1.084       .  S
C225        C226   1.423       .  A
C225        C230   1.395       .  A
C226        C227   1.414       .  A
C227        C228   1.389       .  A
C227        H236   1.076       .  S
C228        C229   1.394       .  A
C228        H237   1.084       .  S
C229        C230   1.392       .  A
C230        H238   1.083       .  S
C239        C240   1.400       .  A
C239        C244   1.396       .  A
C240        C241   1.393       .  A
C240        H253   1.083       .  S
C241        C242   1.413       .  A
C241        H254   1.077       .  S
C242        C248   1.425       .  A
C242        C243   1.423       .  A
C243        C245   1.397       .  A
C243        C244   1.399       .  A
C244        H255   1.084       .  S
C245        C246   1.386       .  A
C245        H256   1.084       .  S
C246        C247   1.398       .  A
C246        H257   1.084       .  S
C247        C248   1.421       .  A
C247        C252   1.396       .  A
C248        C249   1.417       .  A
C249        C250   1.397       .  A
C249        H258   1.077       .  S
C250        C251   1.397       .  A
C250        H259   1.083       .  S
C251        C252   1.398       .  A
C252        H260   1.085       .  S
C261        C262   1.396       .  A
C261        C266   1.397       .  A
C262        C263   1.386       .  A
C262        H275   1.084       .  S
C263        C264   1.413       .  A
C263        H276   1.076       .  S
C264        C270   1.420       .  A
C264        C265   1.422       .  A
C265        C267   1.399       .  A
C265        C266   1.401       .  A
C266        H277   1.085       .  S
C267        C268   1.390       .  A
C267        H278   1.084       .  S
C268        C269   1.399       .  A
C268        H279   1.084       .  S
C269        C270   1.423       .  A
C269        C274   1.402       .  A
C270        C271   1.413       .  A
C271        C272   1.386       .  A
C271        H280   1.076       .  S
C272        C273   1.395       .  A
C272        H281   1.084       .  S
C273        C274   1.397       .  A
C274        H282   1.085       .  S
C283        C284   1.396       .  A
C283        C288   1.397       .  A
C284        C285   1.392       .  A
C284        H297   1.083       .  S
C285        C286   1.415       .  A
C285        H298   1.077       .  S
C286        C292   1.418       .  A
C286        C287   1.420       .  A
C287        C289   1.397       .  A
C287        C288   1.390       .  A
C288        H299   1.085       .  S
C289        C290   1.383       .  A
C289        H300   1.084       .  S
C290        C291   1.396       .  A
C290        H301   1.084       .  S
C291        C292   1.423       .  A
C291        C296   1.391       .  A
C292        C293   1.416       .  A
C293        C294   1.391       .  A
C293        H302   1.077       .  S
C294        C295   1.392       .  A
C294        H303   1.083       .  S
C295        C296   1.390       .  A
C296        H304   1.086       .  S
C305        C306   1.394       .  A
C305        C310   1.395       .  A
C306        C307   1.396       .  A
C306        H319   1.084       .  S
C307        C308   1.417       .  A
C307        H320   1.077       .  S
C308        C314   1.428       .  A
C308        C309   1.423       .  A
C309        C311   1.398       .  A
C309        C310   1.402       .  A
C310        H321   1.084       .  S
C311        C312   1.389       .  A
C311        H322   1.084       .  S
C312        C313   1.399       .  A
C312        H323   1.084       .  S
C313        C314   1.423       .  A
C313        C318   1.404       .  A
C314        C315   1.414       .  A
C315        C316   1.394       .  A
C315        H324   1.077       .  S
C316        C317   1.401       .  A
C316        H325   1.083       .  S
C317        C318   1.401       .  A
C318        H326   1.084       .  S
C327        H328   1.112       .  S
C327        C333   1.524       .  S
C327        C332   1.528       .  S
C327        C331   1.526       .  S
C329        H330   1.112       .  S
C329        C335   1.533       .  S
C329        C334   1.529       .  S
C329        C336   1.526       .  S
C331        C334   1.368       .  D
C331        C521   1.472       .  S
C332        C335   1.375       .  D
C332        C565   1.480       .  S
C333        C336   1.364       .  D
C333        C621   1.450       .  S
C334        C555   1.462       .  S
C335        C587   1.469       .  S
C336        C631   1.470       .  S
C337        H338   1.112       .  S
C337        C343   1.530       .  S
C337        C342   1.529       .  S
C337        C341   1.527       .  S
C339        H340   1.112       .  S
C339        C345   1.528       .  S
C339        C344   1.529       .  S
C339        C346   1.526       .  S
C341        C344   1.368       .  D
C341        C401   1.480       .  S
C342        C345   1.369       .  D
C342        C467   1.458       .  S
C343        C346   1.367       .  D
C343        C477   1.465       .  S
C344        C411   1.455       .  S
C345        C433   1.469       .  S
C346        C511   1.469       .  S
O347        C357   1.281       .  A
O348        C358   1.281       .  A
O348       Ni355   1.915   1_556  S
O349        C359   1.280       .  A
O349       Ni355   1.908   1_456  S
O350        C360   1.280       .  A
O351        C360   1.278       .  A
O352        C359   1.278       .  A
O352       Ni356   1.897   1_456  S
O353        C358   1.282       .  A
O353       Ni356   1.918   1_556  S
O354        C357   1.282       .  A
Ni355      Ni356   2.389       .  S
C357        C533   1.479       .  S
C358        C445   1.481       .  S
C359        C543   1.464       .  S
C360        C455   1.464       .  S
O361        C371   1.279       .  A
O362        C372   1.277       .  A
O362       Ni369   1.890       .  S
O363        C373   1.278       .  A
O363       Ni369   1.892       .  S
O364        C374   1.278       .  A
O365        C374   1.283       .  A
O366        C373   1.283       .  A
O366       Ni370   1.926   1_556  S
O367        C372   1.280       .  A
O367       Ni370   1.917   1_556  S
O368        C371   1.280       .  A
Ni369      Ni370   2.393   1_556  S
C371        C489   1.466       .  S
C372        C599   1.455       .  S
C373        C499   1.469       .  S
C374        C577   1.468       .  S
O375        C385   1.280       .  A
O376        C386   1.279       .  A
O376       Ni383   1.906       .  S
O377        C387   1.276       .  A
O377       Ni383   1.884   1_565  S
O378        C388   1.277       .  A
O379        C388   1.280       .  A
O380        C387   1.280       .  A
O380       Ni384   1.907       .  S
O381        C386   1.282       .  A
O381       Ni384   1.922   1_545  S
O382        C385   1.283       .  A
Ni383      Ni384   2.391   1_545  S
C385        C643   1.478       .  S
C386        C389   1.470       .  S
C387        C609   1.457       .  S
C388        C423   1.460       .  S
C389        C390   1.399       .  A
C389        C394   1.398       .  A
C390        C391   1.394       .  A
C390        H403   1.084       .  S
C391        C392   1.414       .  A
C391        H404   1.077       .  S
C392        C398   1.427       .  A
C392        C393   1.424       .  A
C393        C395   1.399       .  A
C393        C394   1.404       .  A
C394        H405   1.085       .  S
C395        C396   1.388       .  A
C395        H406   1.084       .  S
C396        C397   1.399       .  A
C396        H407   1.084       .  S
C397        C398   1.421       .  A
C397        C402   1.400       .  A
C398        C399   1.416       .  A
C399        C400   1.396       .  A
C399        H408   1.077       .  S
C400        C401   1.398       .  A
C400        H409   1.084       .  S
C401        C402   1.396       .  A
C402        H410   1.075       .  S
C411        C412   1.395       .  A
C411        C416   1.389       .  A
C412        C413   1.388       .  A
C412        H425   1.084       .  S
C413        C414   1.413       .  A
C413        H426   1.077       .  S
C414        C420   1.418       .  A
C414        C415   1.424       .  A
C415        C417   1.395       .  A
C415        C416   1.391       .  A
C416        H427   1.085       .  S
C417        C418   1.382       .  A
C417        H428   1.084       .  S
C418        C419   1.397       .  A
C418        H429   1.084       .  S
C419        C420   1.420       .  A
C419        C424   1.389       .  A
C420        C421   1.416       .  A
C421        C422   1.392       .  A
C421        H430   1.077       .  S
C422        C423   1.396       .  A
C422        H431   1.083       .  S
C423        C424   1.397       .  A
C424        H432   1.085       .  S
C433        C434   1.395       .  A
C433        C438   1.395       .  A
C434        C435   1.396       .  A
C434        H447   1.084       .  S
C435        C436   1.417       .  A
C435        H448   1.077       .  S
C436        C442   1.429       .  A
C436        C437   1.423       .  A
C437        C439   1.398       .  A
C437        C438   1.402       .  A
C438        H449   1.085       .  S
C439        C440   1.389       .  A
C439        H450   1.084       .  S
C440        C441   1.399       .  A
C440        H451   1.084       .  S
C441        C442   1.422       .  A
C441        C446   1.404       .  A
C442        C443   1.414       .  A
C443        C444   1.396       .  A
C443        H452   1.077       .  S
C444        C445   1.401       .  A
C444        H453   1.083       .  S
C445        C446   1.402       .  A
C446        H454   1.084       .  S
C455        C456   1.397       .  A
C455        C460   1.400       .  A
C456        C457   1.384       .  A
C456        H469   1.084       .  S
C457        C458   1.411       .  A
C457        H470   1.076       .  S
C458        C464   1.417       .  A
C458        C459   1.421       .  A
C459        C461   1.400       .  A
C459        C460   1.400       .  A
C460        H471   1.084       .  S
C461        C462   1.390       .  A
C461        H472   1.084       .  S
C462        C463   1.399       .  A
C462        H473   1.084       .  S
C463        C464   1.422       .  A
C463        C468   1.400       .  A
C464        C465   1.412       .  A
C465        C466   1.383       .  A
C465        H474   1.077       .  S
C466        C467   1.393       .  A
C466        H475   1.083       .  S
C467        C468   1.395       .  A
C468        H476   1.085       .  S
C477        C478   1.396       .  A
C477        C482   1.387       .  A
C478        C479   1.395       .  A
C478        H491   1.084       .  S
C479        C480   1.416       .  A
C479        H492   1.077       .  S
C480        C486   1.421       .  A
C480        C481   1.421       .  A
C481        C483   1.396       .  A
C481        C482   1.389       .  A
C482        H493   1.074       .  S
C483        C484   1.381       .  A
C483        H494   1.084       .  S
C484        C485   1.397       .  A
C484        H495   1.084       .  S
C485        C486   1.422       .  A
C485        C490   1.391       .  A
C486        C487   1.415       .  A
C487        C488   1.394       .  A
C487        H496   1.077       .  S
C488        C489   1.399       .  A
C488        H497   1.083       .  S
C489        C490   1.397       .  A
C490        H498   1.085       .  S
C499        C500   1.398       .  A
C499        C504   1.398       .  A
C500        C501   1.399       .  A
C500        H513   1.083       .  S
C501        C502   1.417       .  A
C501        H514   1.078       .  S
C502        C508   1.426       .  A
C502        C503   1.422       .  A
C503        C505   1.397       .  A
C503        C504   1.394       .  A
C504        H515   1.085       .  S
C505        C506   1.383       .  A
C505        H516   1.084       .  S
C506        C507   1.396       .  A
C506        H517   1.084       .  S
C507        C508   1.423       .  A
C507        C512   1.394       .  A
C508        C509   1.417       .  A
C509        C510   1.398       .  A
C509        H518   1.078       .  S
C510        C511   1.395       .  A
C510        H519   1.083       .  S
C511        C512   1.394       .  A
C512        H520   1.085       .  S
C521        C522   1.397       .  A
C521        C526   1.395       .  A
C522        C523   1.395       .  A
C522        H535   1.084       .  S
C523        C524   1.415       .  A
C523        H536   1.077       .  S
C524        C530   1.428       .  A
C524        C525   1.424       .  A
C525        C527   1.398       .  A
C525        C526   1.403       .  A
C526        H537   1.084       .  S
C527        C528   1.389       .  A
C527        H538   1.084       .  S
C528        C529   1.400       .  A
C528        H539   1.084       .  S
C529        C530   1.422       .  A
C529        C534   1.403       .  A
C530        C531   1.415       .  A
C531        C532   1.397       .  A
C531        H540   1.077       .  S
C532        C533   1.400       .  A
C532        H541   1.083       .  S
C533        C534   1.402       .  A
C534        H542   1.084       .  S
C543        C544   1.397       .  A
C543        C548   1.399       .  A
C544        C545   1.390       .  A
C544        H557   1.083       .  S
C545        C546   1.414       .  A
C545        H558   1.077       .  S
C546        C552   1.420       .  A
C546        C547   1.421       .  A
C547        C549   1.398       .  A
C547        C548   1.396       .  A
C548        H559   1.085       .  S
C549        C550   1.386       .  A
C549        H560   1.084       .  S
C550        C551   1.398       .  A
C550        H561   1.084       .  S
C551        C552   1.423       .  A
C551        C556   1.396       .  A
C552        C553   1.415       .  A
C553        C554   1.389       .  A
C553        H562   1.077       .  S
C554        C555   1.394       .  A
C554        H563   1.084       .  S
C555        C556   1.393       .  A
C556        H564   1.083       .  S
C565        C566   1.400       .  A
C565        C570   1.396       .  A
C566        C567   1.394       .  A
C566        H579   1.083       .  S
C567        C568   1.413       .  A
C567        H580   1.077       .  S
C568        C574   1.426       .  A
C568        C569   1.423       .  A
C569        C571   1.397       .  A
C569        C570   1.399       .  A
C570        H581   1.084       .  S
C571        C572   1.385       .  A
C571        H582   1.084       .  S
C572        C573   1.398       .  A
C572        H583   1.084       .  S
C573        C574   1.421       .  A
C573        C578   1.396       .  A
C574        C575   1.417       .  A
C575        C576   1.398       .  A
C575        H584   1.077       .  S
C576        C577   1.398       .  A
C576        H585   1.083       .  S
C577        C578   1.399       .  A
C578        H586   1.085       .  S
C587        C588   1.395       .  A
C587        C592   1.397       .  A
C588        C589   1.386       .  A
C588        H601   1.084       .  S
C589        C590   1.413       .  A
C589        H602   1.076       .  S
C590        C596   1.419       .  A
C590        C591   1.422       .  A
C591        C593   1.400       .  A
C591        C592   1.401       .  A
C592        H603   1.085       .  S
C593        C594   1.390       .  A
C593        H604   1.084       .  S
C594        C595   1.399       .  A
C594        H605   1.084       .  S
C595        C596   1.423       .  A
C595        C600   1.402       .  A
C596        C597   1.412       .  A
C597        C598   1.385       .  A
C597        H606   1.077       .  S
C598        C599   1.394       .  A
C598        H607   1.084       .  S
C599        C600   1.397       .  A
C600        H608   1.085       .  S
C609        C610   1.396       .  A
C609        C614   1.397       .  A
C610        C611   1.390       .  A
C610        H623   1.083       .  S
C611        C612   1.414       .  A
C611        H624   1.077       .  S
C612        C618   1.417       .  A
C612        C613   1.420       .  A
C613        C615   1.397       .  A
C613        C614   1.390       .  A
C614        H625   1.085       .  S
C615        C616   1.383       .  A
C615        H626   1.084       .  S
C616        C617   1.396       .  A
C616        H627   1.084       .  S
C617        C618   1.423       .  A
C617        C622   1.390       .  A
C618        C619   1.415       .  A
C619        C620   1.389       .  A
C619        H628   1.077       .  S
C620        C621   1.391       .  A
C620        H629   1.084       .  S
C621        C622   1.390       .  A
C622        H630   1.086       .  S
C631        C632   1.394       .  A
C631        C636   1.395       .  A
C632        C633   1.396       .  A
C632        H645   1.084       .  S
C633        C634   1.417       .  A
C633        H646   1.077       .  S
C634        C640   1.428       .  A
C634        C635   1.423       .  A
C635        C637   1.398       .  A
C635        C636   1.402       .  A
C636        H647   1.084       .  S
C637        C638   1.389       .  A
C637        H648   1.084       .  S
C638        C639   1.399       .  A
C638        H649   1.084       .  S
C639        C640   1.423       .  A
C639        C644   1.404       .  A
C640        C641   1.414       .  A
C641        C642   1.395       .  A
C641        H650   1.077       .  S
C642        C643   1.401       .  A
C642        H651   1.083       .  S
C643        C644   1.401       .  A
C644        H652   1.084       .  S
