geometry optimzed in LAMMPS
_audit_creation_date              2020-11-30 
_audit_creation_method            'lammps2cif' 
_symmetry_space_group_name_H-M    'P1' 
_symmetry_Int_Tables_number       1 
_symmetry_cell_setting            triclinic 
loop_ 
_symmetry_equiv_pos_as_xyz 
  x,y,z 
_cell_length_a                    28.04542944 
_cell_length_b                    26.53702111312796 
_cell_length_c                    27.854891298055474 
_cell_angle_alpha                 90.02208433642653 
_cell_angle_beta                  90.0052330760964 
_cell_angle_gamma                 92.28846809835599 
loop_ 
_atom_site_label 
_atom_site_type_symbol 
_atom_site_fract_x 
_atom_site_fract_y 
_atom_site_fract_z 
_atom_site_charge 
C1          C  0.33711966  0.37563338  0.03507009     0.02400
C2          C  0.29272524  0.35977071  0.01476466    -0.13700
C3          C  0.29090719  0.32679949  0.47578885    -0.00100
C4          C  0.99986027  0.30874654  0.45791453    -0.12200
C5          C  0.04427818  0.32008396  0.47977798     0.02400
C6          C  0.04626234  0.35430754  0.01838965    -0.11700
H7          H  0.25955237  0.37307848  0.02902142     0.08000
H8          H  0.99709594  0.28179454  0.42869616     0.05500
H9          H  0.08024891  0.36437353  0.03497893     0.05400
C10         C  0.32799445  0.08909833  0.03488534     0.02400
C11         C  0.28544317  0.10994807  0.01788561    -0.13700
C12         C  0.28720703  0.14312362  0.47848139    -0.00100
C13         C  0.33145218  0.15353266  0.45588736    -0.12200
C14         C  0.04057953  0.13647231  0.47436961     0.02400
C15         C  0.03894506  0.10464520  0.01420020    -0.11700
H16         H  0.25157417  0.10044516  0.03495274     0.08000
H17         H  0.33400280  0.17948630  0.42587549     0.05500
H18         H  0.07219686  0.09199465  0.02886119     0.05400
O19         O  0.12466404  0.28882108  0.48444084    -0.82500
C20         C  0.17107351  0.16493971  0.32281747     0.96900
O21         O  0.13331378  0.18770370  0.33051026    -0.71600
O22         O  0.09090973  0.16679162  0.41205186    -0.75200
Al23       Al  0.11126852  0.22779004  0.38144639     1.49000
C24         C  0.08497841  0.16167861  0.45670950     0.92100
O25         O  0.20677506  0.17424391  0.48338262    -0.81400
O26         O  0.24031529  0.29796376  0.41316503    -0.75000
Al27       Al  0.16574553  0.23160069  0.47923682     1.90100
O28         O  0.25391945  0.19865875  0.42460435    -0.74100
O29         O  0.19860557  0.27769140  0.33100758    -0.73900
O30         O  0.20841341  0.17647302  0.34616786    -0.79600
O31         O  0.12351686  0.28889365  0.34647481    -0.77800
O32         O  0.16580231  0.23222188  0.41419020    -1.13900
O33         O  0.07791829  0.26604674  0.42473231    -0.73100
C34         C  0.08535242  0.29143543  0.46224372     0.97600
C35         C  0.24625102  0.17224209  0.46139640     0.94000
Al36       Al  0.22045670  0.23725256  0.38170940     1.55600
O37         O  0.11133693  0.18602676  0.48601124    -0.77700
C38         C  0.16084284  0.30032530  0.32310140     0.98200
C39         C  0.24637051  0.30214038  0.45790501     0.93100
O40         O  0.22018557  0.27707352  0.48682861    -0.83000
C41         C  0.16132985  0.33905700  0.28484856     0.02400
C42         C  0.20561628  0.35459160  0.26415989    -0.13700
C43         C  0.20725572  0.38641785  0.22432775    -0.00100
C44         C  0.16479655  0.40348009  0.20584315    -0.12200
C45         C  0.12055112  0.39307441  0.22843695     0.02400
C46         C  0.11878327  0.35990857  0.26784606    -0.11700
H47         H  0.23886576  0.34193825  0.27882335     0.08000
H48         H  0.16734786  0.42943333  0.17583094     0.05500
H49         H  0.08491378  0.35041591  0.28491662     0.05400
C50         C  0.17046057  0.12559202  0.28510891     0.02400
C51         C  0.12606817  0.10971441  0.26480813    -0.13700
C52         C  0.12425533  0.07673963  0.22583508    -0.00100
C53         C  0.16654370  0.05869030  0.20796359    -0.12200
C54         C  0.21096188  0.07003752  0.22982323     0.02800
C55         C  0.21294194  0.10427127  0.26842917    -0.11700
H56         H  0.09289321  0.12301877  0.27906224     0.08000
H57         H  0.16378058  0.03173524  0.17874748     0.05500
H58         H  0.24692842  0.11435067  0.28501254     0.05400
O59         O  0.29134594  0.03875532  0.23448083    -0.82500
C60         C  0.33774205  0.41496631  0.07278960     0.96900
O61         O  0.29998456  0.43772794  0.08049552    -0.71600
O62         O  0.25758241  0.41677556  0.16202261    -0.75200
Al63       Al  0.27794614  0.47778963  0.13144716     1.49000
C64         C  0.25165564  0.41163151  0.20667733     0.92100
O65         O  0.04011839  0.42417600  0.23334090    -0.81400
O66         O  0.07366368  0.04793956  0.16319610    -0.75000
Al67       Al  0.33242726  0.48153503  0.22923572     1.90100
O68         O  0.08726743  0.44863112  0.17457984    -0.74100
O69         O  0.03194853  0.02771778  0.08102360    -0.73900
O70         O  0.04175334  0.42648914  0.09613680    -0.79600
O71         O  0.29019371  0.03890818  0.09649980    -0.77800
O72         O  0.33248153  0.48219938  0.16418903    -1.13900
O73         O  0.24460615  0.01603036  0.17475247    -0.73100
C74         C  0.25203825  0.04139345  0.21227989     0.97600
C75         C  0.07959686  0.42219345  0.21135773     0.94000
Al76       Al  0.05380171  0.48724841  0.13170687     1.55600
O77         O  0.27801913  0.43595755  0.23598991    -0.77700
C78         C  0.32751644  0.05035192  0.07312695     0.98200
C79         C  0.07972051  0.05208647  0.20793877     0.93100
O80         O  0.05353740  0.02699952  0.23684928    -0.83000
C81         C  0.33711959  0.37563320  0.53507021     0.02400
C82         C  0.29272508  0.35977062  0.51476477    -0.13700
C83         C  0.29090723  0.32679950  0.97578886    -0.00100
C84         C  0.99986019  0.30874641  0.95791459    -0.12200
C85         C  0.04427816  0.32008405  0.97977790     0.02400
C86         C  0.04626235  0.35430732  0.51838982    -0.11700
H87         H  0.25955257  0.37307827  0.52902134     0.08000
H88         H  0.99709584  0.28179424  0.92869632     0.05500
H89         H  0.08024898  0.36437329  0.53497914     0.05400
C90         C  0.32799432  0.08909826  0.53488527     0.02400
C91         C  0.28544312  0.10994803  0.51788543    -0.13700
C92         C  0.28720699  0.14312360  0.97848148    -0.00100
C93         C  0.33145210  0.15353271  0.95588745    -0.12200
C94         C  0.04057955  0.13647241  0.97436957     0.02400
C95         C  0.03894512  0.10464510  0.51420028    -0.11700
H96         H  0.25157394  0.10044514  0.53495257     0.08000
H97         H  0.33400270  0.17948654  0.92587543     0.05500
H98         H  0.07219647  0.09199470  0.52886116     0.05400
O99         O  0.12466413  0.28882126  0.98444080    -0.82500
C100        C  0.17107353  0.16493976  0.82281748     0.96900
O101        O  0.13331380  0.18770382  0.83051022    -0.71600
O102        O  0.09090980  0.16679176  0.91205184    -0.75200
Al103      Al  0.11126853  0.22779015  0.88144640     1.49000
C104        C  0.08497843  0.16167874  0.95670946     0.92100
O105        O  0.20677494  0.17424374  0.98338256    -0.81400
O106        O  0.24031529  0.29796382  0.91316507    -0.75000
Al107      Al  0.16574554  0.23160070  0.97923685     1.90100
O108        O  0.25391941  0.19865865  0.92460441    -0.74100
O109        O  0.19860554  0.27769136  0.83100767    -0.73900
O110        O  0.20841333  0.17647291  0.84616805    -0.79600
O111        O  0.12351683  0.28889377  0.84647482    -0.77800
O112        O  0.16580230  0.23222195  0.91419026    -1.13900
O113        O  0.07791831  0.26604681  0.92473231    -0.73100
C114        C  0.08535246  0.29143556  0.96224366     0.97600
C115        C  0.24625092  0.17224194  0.96139642     0.94000
Al116      Al  0.22045667  0.23725252  0.88170949     1.55600
O117        O  0.11133691  0.18602688  0.98601124    -0.77700
C118        C  0.16084287  0.30032540  0.82310148     0.98200
C119        C  0.24637055  0.30214040  0.95790505     0.93100
O120        O  0.22018569  0.27707340  0.98682864    -0.83000
C121        C  0.16132995  0.33905714  0.78484866     0.02400
C122        C  0.20561633  0.35459163  0.76415985    -0.13700
C123        C  0.20725573  0.38641786  0.72432771    -0.00100
C124        C  0.16479657  0.40348018  0.70584309    -0.12200
C125        C  0.12055117  0.39307451  0.72843698     0.02400
C126        C  0.11878340  0.35990876  0.76784615    -0.11700
H127        H  0.23886589  0.34193814  0.77882323     0.08000
H128        H  0.16734782  0.42943316  0.67583096     0.05500
H129        H  0.08491383  0.35041605  0.78491674     0.05400
C130        C  0.17046061  0.12559208  0.78510886     0.02400
C131        C  0.12606824  0.10971441  0.76480811    -0.13700
C132        C  0.12425539  0.07673956  0.72583511    -0.00100
C133        C  0.16654376  0.05869036  0.70796344    -0.12200
C134        C  0.21096189  0.07003763  0.72982312     0.02800
C135        C  0.21294197  0.10427121  0.76842921    -0.11700
H136        H  0.09289327  0.12301875  0.77906228     0.08000
H137        H  0.16378067  0.03173549  0.67874743     0.05500
H138        H  0.24692834  0.11435045  0.78501264     0.05400
O139        O  0.29134583  0.03875536  0.73448092    -0.82500
C140        C  0.33774200  0.41496624  0.57278961     0.96900
O141        O  0.29998454  0.43772796  0.58049540    -0.71600
O142        O  0.25758235  0.41677549  0.66202250    -0.75200
Al143      Al  0.27794613  0.47778962  0.63144709     1.49000
C144        C  0.25165564  0.41163143  0.70667723     0.92100
O145        O  0.04011844  0.42417600  0.73334099    -0.81400
O146        O  0.07366369  0.04793957  0.66319619    -0.75000
Al147      Al  0.33242718  0.48153501  0.72923575     1.90100
O148        O  0.08726733  0.44863103  0.67457977    -0.74100
O149        O  0.03194859  0.02771793  0.58102370    -0.73900
O150        O  0.04175332  0.42648907  0.59613686    -0.79600
O151        O  0.29019362  0.03890820  0.59649976    -0.77800
O152        O  0.33248150  0.48219940  0.66418904    -1.13900
O153        O  0.24460623  0.01603052  0.67475234    -0.73100
C154        C  0.25203825  0.04139358  0.71227981     0.97600
C155        C  0.07959686  0.42219342  0.71135771     0.94000
Al156      Al  0.05380170  0.48724838  0.63170686     1.55600
O157        O  0.27801907  0.43595753  0.73598980    -0.77700
C158        C  0.32751637  0.05035196  0.57312694     0.98200
C159        C  0.07972061  0.05208636  0.70793884     0.93100
O160        O  0.05353750  0.02699941  0.73684938    -0.83000
C161        C  0.33711962  0.87563324  0.03507014     0.02400
C162        C  0.29272514  0.85977071  0.01476466    -0.13700
C163        C  0.29090715  0.82679954  0.47578887    -0.00100
C164        C  0.99986024  0.80874659  0.45791452    -0.12200
C165        C  0.04427818  0.82008402  0.47977798     0.02400
C166        C  0.04626231  0.85430737  0.01838968    -0.11700
H167        H  0.25955256  0.87307840  0.02902125     0.08000
H168        H  0.99709591  0.78179459  0.42869615     0.05500
H169        H  0.08024896  0.86437330  0.03497902     0.05400
C170        C  0.32799439  0.58909822  0.03488525     0.02400
C171        C  0.28544315  0.60994809  0.01788559    -0.13700
C172        C  0.28720698  0.64312364  0.47848152    -0.00100
C173        C  0.33145212  0.65353272  0.45588743    -0.12200
C174        C  0.04057953  0.63647237  0.47436963     0.02400
C175        C  0.03894510  0.60464506  0.01420012    -0.11700
H176        H  0.25157409  0.60044527  0.03495279     0.08000
H177        H  0.33400271  0.67948627  0.42587555     0.05500
H178        H  0.07219678  0.59199449  0.02886107     0.05400
O179        O  0.12466409  0.78882114  0.48444084    -0.82500
C180        C  0.17107353  0.66493970  0.32281748     0.96900
O181        O  0.13331381  0.68770377  0.33051024    -0.71600
O182        O  0.09090973  0.66679168  0.41205186    -0.75200
Al183      Al  0.11126852  0.72779010  0.38144639     1.49000
C184        C  0.08497840  0.66167867  0.45670950     0.92100
O185        O  0.20677489  0.67424369  0.48338257    -0.81400
O186        O  0.24031526  0.79796377  0.41316503    -0.75000
Al187      Al  0.16574550  0.73160064  0.47923681     1.90100
O188        O  0.25391935  0.69865861  0.42460441    -0.74100
O189        O  0.19860556  0.77769127  0.33100751    -0.73900
O190        O  0.20841339  0.67647289  0.34616793    -0.79600
O191        O  0.12351689  0.78889371  0.34647484    -0.77800
O192        O  0.16580229  0.73222189  0.41419019    -1.13900
O193        O  0.07791830  0.76604680  0.42473232    -0.73100
C194        C  0.08535244  0.79143550  0.46224372     0.97600
C195        C  0.24625090  0.67224194  0.46139642     0.94000
Al196      Al  0.22045668  0.73725247  0.38170941     1.55600
O197        O  0.11133689  0.68602684  0.48601124    -0.77700
C198        C  0.16084287  0.80032529  0.32310139     0.98200
C199        C  0.24637050  0.80214036  0.45790501     0.93100
O200        O  0.22018563  0.77707334  0.48682859    -0.83000
C201        C  0.16132990  0.83905703  0.28484858     0.02400
C202        C  0.20561629  0.85459164  0.26415987    -0.13700
C203        C  0.20725574  0.88641790  0.22432776    -0.00100
C204        C  0.16479658  0.90348016  0.20584316    -0.12200
C205        C  0.12055117  0.89307447  0.22843696     0.02400
C206        C  0.11878332  0.85990861  0.26784605    -0.11700
H207        H  0.23886587  0.84193822  0.27882333     0.08000
H208        H  0.16734789  0.92943339  0.17583095     0.05500
H209        H  0.08491375  0.85041590  0.28491658     0.05400
C210        C  0.17046058  0.62559207  0.28510888     0.02400
C211        C  0.12606822  0.60971445  0.26480812    -0.13700
C212        C  0.12425535  0.57673970  0.22583508    -0.00100
C213        C  0.16654372  0.55869036  0.20796358    -0.12200
C214        C  0.21096190  0.57003759  0.22982322     0.02800
C215        C  0.21294196  0.60427133  0.26842915    -0.11700
H216        H  0.09289313  0.62301883  0.27906237     0.08000
H217        H  0.16378060  0.53173530  0.17874748     0.05500
H218        H  0.24692843  0.61435073  0.28501254     0.05400
O219        O  0.29134596  0.53875542  0.23448082    -0.82500
C220        C  0.33774205  0.91496623  0.07278961     0.96900
O221        O  0.29998462  0.93772797  0.08049548    -0.71600
O222        O  0.25758243  0.91677560  0.16202261    -0.75200
Al223      Al  0.27794616  0.97778964  0.13144714     1.49000
C224        C  0.25165566  0.91163154  0.20667732     0.92100
O225        O  0.04011841  0.92417597  0.23334087    -0.81400
O226        O  0.07366367  0.54793955  0.16319618    -0.75000
Al227      Al  0.33242726  0.98153499  0.22923570     1.90100
O228        O  0.08726746  0.94863117  0.17457985    -0.74100
O229        O  0.03194855  0.52771781  0.08102365    -0.73900
O230        O  0.04175335  0.92648900  0.09613685    -0.79600
O231        O  0.29019369  0.53890817  0.09649982    -0.77800
O232        O  0.33248154  0.98219937  0.16418901    -1.13900
O233        O  0.24460617  0.51603039  0.17475248    -0.73100
C234        C  0.25203826  0.54139352  0.21227988     0.97600
C235        C  0.07959690  0.92219349  0.21135773     0.94000
Al236      Al  0.05380171  0.98724838  0.13170684     1.55600
O237        O  0.27801916  0.93595753  0.23598992    -0.77700
C238        C  0.32751642  0.55035190  0.07312695     0.98200
C239        C  0.07972054  0.55208651  0.20793884     0.93100
O240        O  0.05353742  0.52699961  0.23684938    -0.83000
C241        C  0.33711959  0.87563327  0.53507021     0.02400
C242        C  0.29272508  0.85977068  0.51476479    -0.13700
C243        C  0.29090723  0.82679955  0.97578879    -0.00100
C244        C  0.99986021  0.80874649  0.95791443    -0.12200
C245        C  0.04427817  0.82008405  0.97977783     0.02400
C246        C  0.04626237  0.85430738  0.51838981    -0.11700
H247        H  0.25955252  0.87307835  0.52902139     0.08000
H248        H  0.99709586  0.78179443  0.92869619     0.05500
H249        H  0.08024900  0.86437335  0.53497913     0.05400
C250        C  0.32799436  0.58909829  0.53488531     0.02400
C251        C  0.28544313  0.60994806  0.51788554    -0.13700
C252        C  0.28720700  0.64312365  0.97848149    -0.00100
C253        C  0.33145212  0.65353275  0.95588744    -0.12200
C254        C  0.04057959  0.63647240  0.97436958     0.02400
C255        C  0.03894512  0.60464514  0.51420026    -0.11700
H256        H  0.25157395  0.60044507  0.53495269     0.08000
H257        H  0.33400273  0.67948643  0.92587555     0.05500
H258        H  0.07219657  0.59199469  0.52886110     0.05400
O259        O  0.12466414  0.78882131  0.98444079    -0.82500
C260        C  0.17107355  0.66493980  0.82281746     0.96900
O261        O  0.13331381  0.68770384  0.83051022    -0.71600
O262        O  0.09090982  0.66679181  0.91205186    -0.75200
Al263      Al  0.11126856  0.72779016  0.88144639     1.49000
C264        C  0.08497845  0.66167878  0.95670948     0.92100
O265        O  0.20677496  0.67424381  0.98338255    -0.81400
O266        O  0.24031530  0.79796387  0.91316505    -0.75000
Al267      Al  0.16574556  0.73160076  0.97923685     1.90100
O268        O  0.25391944  0.69865871  0.92460441    -0.74100
O269        O  0.19860559  0.77769142  0.83100770    -0.73900
O270        O  0.20841335  0.67647297  0.84616803    -0.79600
O271        O  0.12351683  0.78889367  0.84647476    -0.77800
O272        O  0.16580233  0.73222200  0.91419026    -1.13900
O273        O  0.07791836  0.76604685  0.92473227    -0.73100
C274        C  0.08535249  0.79143559  0.96224362     0.97600
C275        C  0.24625095  0.67224201  0.96139642     0.94000
Al276      Al  0.22045670  0.73725257  0.88170949     1.55600
O277        O  0.11133693  0.68602694  0.98601125    -0.77700
C278        C  0.16084289  0.80032539  0.82310149     0.98200
C279        C  0.24637055  0.80214045  0.95790502     0.93100
O280        O  0.22018571  0.77707346  0.98682863    -0.83000
C281        C  0.16132997  0.83905717  0.78484871     0.02400
C282        C  0.20561636  0.85459162  0.76415989    -0.13700
C283        C  0.20725576  0.88641774  0.72432766    -0.00100
C284        C  0.16479659  0.90347998  0.70584304    -0.12200
C285        C  0.12055120  0.89307450  0.72843698     0.02400
C286        C  0.11878341  0.85990880  0.76784620    -0.11700
H287        H  0.23886593  0.84193819  0.77882335     0.08000
H288        H  0.16734784  0.92943307  0.67583072     0.05500
H289        H  0.08491383  0.85041612  0.78491679     0.05400
C290        C  0.17046060  0.62559207  0.78510884     0.02400
C291        C  0.12606824  0.60971430  0.76480814    -0.13700
C292        C  0.12425534  0.57673951  0.72583510    -0.00100
C293        C  0.16654370  0.55869020  0.70796348    -0.12200
C294        C  0.21096186  0.57003757  0.72982310     0.02800
C295        C  0.21294196  0.60427123  0.76842914    -0.11700
H296        H  0.09289317  0.62301865  0.77906241     0.08000
H297        H  0.16378058  0.53173526  0.67874758     0.05500
H298        H  0.24692830  0.61435053  0.78501251     0.05400
O299        O  0.29134583  0.53875540  0.73448088    -0.82500
C300        C  0.33774202  0.91496630  0.57278962     0.96900
O301        O  0.29998457  0.93772801  0.58049541    -0.71600
O302        O  0.25758236  0.91677556  0.66202250    -0.75200
Al303      Al  0.27794614  0.97778968  0.63144709     1.49000
C304        C  0.25165565  0.91163143  0.70667723     0.92100
O305        O  0.04011847  0.92417605  0.73334098    -0.81400
O306        O  0.07366370  0.54793943  0.66319618    -0.75000
Al307      Al  0.33242718  0.98153502  0.72923574     1.90100
O308        O  0.08726739  0.94863111  0.67457979    -0.74100
O309        O  0.03194861  0.52771794  0.58102371    -0.73900
O310        O  0.04175336  0.92648913  0.59613687    -0.79600
O311        O  0.29019363  0.53890821  0.59649977    -0.77800
O312        O  0.33248151  0.98219945  0.66418904    -1.13900
O313        O  0.24460620  0.51603038  0.67475239    -0.73100
C314        C  0.25203823  0.54139354  0.71227980     0.97600
C315        C  0.07959690  0.92219348  0.71135772     0.94000
Al316      Al  0.05380172  0.98724846  0.63170687     1.55600
O317        O  0.27801907  0.93595755  0.73598981    -0.77700
C318        C  0.32751639  0.55035199  0.57312697     0.98200
C319        C  0.07972055  0.55208634  0.70793883     0.93100
O320        O  0.05353744  0.52699943  0.73684939    -0.83000
C321        C  0.67045296  0.37563337  0.03507010     0.02400
C322        C  0.62605851  0.35977072  0.01476467    -0.13700
C323        C  0.62424059  0.32679951  0.47578886    -0.00100
C324        C  0.33319353  0.30874652  0.45791453    -0.12200
C325        C  0.37761147  0.32008393  0.47977798     0.02400
C326        C  0.37959572  0.35430754  0.01838964    -0.11700
H327        H  0.59288584  0.37307838  0.02902130     0.08000
H328        H  0.33042922  0.28179452  0.42869616     0.05500
H329        H  0.41358225  0.36437353  0.03497889     0.05400
C330        C  0.66132767  0.08909833  0.03488533     0.02400
C331        C  0.61877643  0.10994812  0.01788557    -0.13700
C332        C  0.62054031  0.14312361  0.47848141    -0.00100
C333        C  0.66478544  0.15353265  0.45588735    -0.12200
C334        C  0.37391289  0.13647231  0.47436962     0.02400
C335        C  0.37227844  0.10464520  0.01420020    -0.11700
H336        H  0.58490738  0.10044522  0.03495271     0.08000
H337        H  0.66733604  0.17948629  0.42587546     0.05500
H338        H  0.40553006  0.09199477  0.02886107     0.05400
O339        O  0.45799742  0.28882112  0.48444084    -0.82500
C340        C  0.50440690  0.16493971  0.32281747     0.96900
O341        O  0.46664714  0.18770372  0.33051023    -0.71600
O342        O  0.42424316  0.16679161  0.41205187    -0.75200
Al343      Al  0.44460191  0.22779005  0.38144640     1.49000
C344        C  0.41831181  0.16167860  0.45670951     0.92100
O345        O  0.54010834  0.17424388  0.48338258    -0.81400
O346        O  0.57364871  0.29796375  0.41316502    -0.75000
Al347      Al  0.49907890  0.23160070  0.47923682     1.90100
O348        O  0.58725277  0.19865876  0.42460438    -0.74100
O349        O  0.53193892  0.27769137  0.33100757    -0.73900
O350        O  0.54174674  0.17647300  0.34616790    -0.79600
O351        O  0.45685022  0.28889368  0.34647482    -0.77800
O352        O  0.49913569  0.23222190  0.41419020    -1.13900
O353        O  0.41125168  0.26604675  0.42473232    -0.73100
C354        C  0.41868578  0.29143543  0.46224373     0.97600
C355        C  0.57958429  0.17224207  0.46139641     0.94000
Al356      Al  0.55379007  0.23725255  0.38170941     1.55600
O357        O  0.44467032  0.18602676  0.48601125    -0.77700
C358        C  0.49417622  0.30032531  0.32310140     0.98200
C359        C  0.57970393  0.30214038  0.45790500     0.93100
O360        O  0.55351899  0.27707349  0.48682860    -0.83000
C361        C  0.49466325  0.33905701  0.28484857     0.02400
C362        C  0.53894968  0.35459159  0.26415988    -0.13700
C363        C  0.54058905  0.38641782  0.22432773    -0.00100
C364        C  0.49812991  0.40348010  0.20584313    -0.12200
C365        C  0.45388451  0.39307443  0.22843694     0.02400
C366        C  0.45211669  0.35990859  0.26784606    -0.11700
H367        H  0.57219912  0.34193826  0.27882332     0.08000
H368        H  0.50068118  0.42943336  0.17583093     0.05500
H369        H  0.41824719  0.35041591  0.28491663     0.05400
C370        C  0.50379396  0.12559202  0.28510889     0.02400
C371        C  0.45940162  0.10971439  0.26480809    -0.13700
C372        C  0.45758867  0.07673964  0.22583504    -0.00100
C373        C  0.49987704  0.05869028  0.20796357    -0.12200
C374        C  0.54429521  0.07003751  0.22982320     0.02800
C375        C  0.54627534  0.10427126  0.26842915    -0.11700
H376        H  0.42622645  0.12301887  0.27906234     0.08000
H377        H  0.49711391  0.03173521  0.17874744     0.05500
H378        H  0.58026177  0.11435064  0.28501248     0.05400
O379        O  0.62467921  0.03875533  0.23448087    -0.82500
C380        C  0.67107537  0.41496631  0.07278961     0.96900
O381        O  0.63331788  0.43772796  0.08049550    -0.71600
O382        O  0.59091566  0.41677557  0.16202260    -0.75200
Al383      Al  0.61127943  0.47778964  0.13144715     1.49000
C384        C  0.58498892  0.41163150  0.20667732     0.92100
O385        O  0.37345179  0.42417599  0.23334096    -0.81400
O386        O  0.40699686  0.04793962  0.16319611    -0.75000
Al387      Al  0.66576051  0.48153505  0.22923572     1.90100
O388        O  0.42060072  0.44863110  0.17457982    -0.74100
O389        O  0.36528192  0.02771778  0.08102358    -0.73900
O390        O  0.37508671  0.42648914  0.09613680    -0.79600
O391        O  0.62352690  0.03890817  0.09649980    -0.77800
O392        O  0.66581483  0.48219940  0.16418903    -1.13900
O393        O  0.57793949  0.01603038  0.17475244    -0.73100
C394        C  0.58537157  0.04139346  0.21227989     0.97600
C395        C  0.41293023  0.42219345  0.21135774     0.94000
Al396      Al  0.38713501  0.48724842  0.13170687     1.55600
O397        O  0.61135234  0.43595759  0.23598990    -0.77700
C398        C  0.66084963  0.05035192  0.07312695     0.98200
C399        C  0.41305382  0.05208649  0.20793878     0.93100
O400        O  0.38687079  0.02699949  0.23684931    -0.83000
C401        C  0.67045302  0.37563321  0.53507021     0.02400
C402        C  0.62605851  0.35977063  0.51476479    -0.13700
C403        C  0.62424060  0.32679950  0.97578885    -0.00100
C404        C  0.33319356  0.30874642  0.95791464    -0.12200
C405        C  0.37761153  0.32008402  0.97977790     0.02400
C406        C  0.37959563  0.35430732  0.51838981    -0.11700
H407        H  0.59288596  0.37307830  0.52902138     0.08000
H408        H  0.33042917  0.28179406  0.92869624     0.05500
H409        H  0.41358217  0.36437330  0.53497908     0.05400
C410        C  0.66132768  0.08909826  0.53488527     0.02400
C411        C  0.61877645  0.10994803  0.51788546    -0.13700
C412        C  0.62054031  0.14312363  0.97848145    -0.00100
C413        C  0.66478543  0.15353274  0.95588743    -0.12200
C414        C  0.37391285  0.13647239  0.97436953     0.02400
C415        C  0.37227836  0.10464511  0.51420026    -0.11700
H416        H  0.58490733  0.10044512  0.53495261     0.08000
H417        H  0.66733604  0.17948659  0.92587538     0.05500
H418        H  0.40552990  0.09199460  0.52886129     0.05400
O419        O  0.45799754  0.28882129  0.98444079    -0.82500
C420        C  0.50440695  0.16493976  0.82281747     0.96900
O421        O  0.46664725  0.18770384  0.83051023    -0.71600
O422        O  0.42424320  0.16679174  0.91205183    -0.75200
Al423      Al  0.44460197  0.22779015  0.88144640     1.49000
C424        C  0.41831171  0.16167878  0.95670946     0.92100
O425        O  0.54010827  0.17424373  0.98338260    -0.81400
O426        O  0.57364873  0.29796380  0.91316507    -0.75000
Al427      Al  0.49907891  0.23160071  0.97923686     1.90100
O428        O  0.58725270  0.19865861  0.92460439    -0.74100
O429        O  0.53193899  0.27769139  0.83100766    -0.73900
O430        O  0.54174677  0.17647291  0.84616802    -0.79600
O431        O  0.45685028  0.28889375  0.84647483    -0.77800
O432        O  0.49913572  0.23222195  0.91419026    -1.13900
O433        O  0.41125174  0.26604682  0.92473230    -0.73100
C434        C  0.41868587  0.29143557  0.96224367     0.97600
C435        C  0.57958422  0.17224192  0.96139642     0.94000
Al436      Al  0.55379009  0.23725251  0.88170949     1.55600
O437        O  0.44467016  0.18602695  0.98601126    -0.77700
C438        C  0.49417630  0.30032540  0.82310148     0.98200
C439        C  0.57970397  0.30214038  0.95790504     0.93100
O440        O  0.55351913  0.27707337  0.98682863    -0.83000
C441        C  0.49466330  0.33905715  0.78484866     0.02400
C442        C  0.53894971  0.35459163  0.76415985    -0.13700
C443        C  0.54058901  0.38641786  0.72432768    -0.00100
C444        C  0.49812984  0.40348017  0.70584310    -0.12200
C445        C  0.45388443  0.39307449  0.72843699     0.02400
C446        C  0.45211664  0.35990872  0.76784620    -0.11700
H447        H  0.57219902  0.34193827  0.77882308     0.08000
H448        H  0.50068108  0.42943316  0.67583098     0.05500
H449        H  0.41824734  0.35041605  0.78491667     0.05400
C450        C  0.50379397  0.12559207  0.78510885     0.02400
C451        C  0.45940150  0.10971445  0.76480815    -0.13700
C452        C  0.45758867  0.07673958  0.72583509    -0.00100
C453        C  0.49987704  0.05869034  0.70796344    -0.12200
C454        C  0.54429521  0.07003759  0.72982311     0.02800
C455        C  0.54627535  0.10427120  0.76842920    -0.11700
H456        H  0.42622686  0.12301868  0.77906221     0.08000
H457        H  0.49711395  0.03173547  0.67874743     0.05500
H458        H  0.58026149  0.11435035  0.78501247     0.05400
O459        O  0.62467921  0.03875539  0.73448092    -0.82500
C460        C  0.67107544  0.41496625  0.57278961     0.96900
O461        O  0.63331799  0.43772797  0.58049540    -0.71600
O462        O  0.59091577  0.41677544  0.66202250    -0.75200
Al463      Al  0.61127948  0.47778960  0.63144709     1.49000
C464        C  0.58498896  0.41163143  0.70667724     0.92100
O465        O  0.37345165  0.42417599  0.73334095    -0.81400
O466        O  0.40699685  0.04793962  0.66319620    -0.75000
Al467      Al  0.66576051  0.48153502  0.72923574     1.90100
O468        O  0.42060061  0.44863106  0.67457980    -0.74100
O469        O  0.36528186  0.02771790  0.58102366    -0.73900
O470        O  0.37508660  0.42648903  0.59613689    -0.79600
O471        O  0.62352692  0.03890817  0.59649972    -0.77800
O472        O  0.66581487  0.48219942  0.66418904    -1.13900
O473        O  0.57793961  0.01603051  0.67475235    -0.73100
C474        C  0.58537162  0.04139358  0.71227982     0.97600
C475        C  0.41293009  0.42219341  0.71135771     0.94000
Al476      Al  0.38713497  0.48724838  0.63170688     1.55600
O477        O  0.61135235  0.43595756  0.73598981    -0.77700
C478        C  0.66084968  0.05035195  0.57312694     0.98200
C479        C  0.41305384  0.05208638  0.70793886     0.93100
O480        O  0.38687080  0.02699938  0.73684940    -0.83000
C481        C  0.67045297  0.87563325  0.03507015     0.02400
C482        C  0.62605853  0.85977070  0.01476465    -0.13700
C483        C  0.62424055  0.82679955  0.47578887    -0.00100
C484        C  0.33319351  0.80874658  0.45791453    -0.12200
C485        C  0.37761146  0.82008399  0.47977798     0.02400
C486        C  0.37959563  0.85430737  0.01838968    -0.11700
H487        H  0.59288587  0.87307840  0.02902124     0.08000
H488        H  0.33042919  0.78179459  0.42869617     0.05500
H489        H  0.41358225  0.86437331  0.03497899     0.05400
C490        C  0.66132768  0.58909822  0.03488525     0.02400
C491        C  0.61877645  0.60994813  0.01788557    -0.13700
C492        C  0.62054033  0.64312365  0.47848152    -0.00100
C493        C  0.66478543  0.65353274  0.45588741    -0.12200
C494        C  0.37391287  0.63647238  0.47436963     0.02400
C495        C  0.37227843  0.60464505  0.01420013    -0.11700
H496        H  0.58490742  0.60044530  0.03495276     0.08000
H497        H  0.66733599  0.67948631  0.42587553     0.05500
H498        H  0.40552987  0.59199461  0.02886097     0.05400
O499        O  0.45799747  0.78882118  0.48444084    -0.82500
C500        C  0.50440688  0.66493970  0.32281747     0.96900
O501        O  0.46664718  0.68770379  0.33051021    -0.71600
O502        O  0.42424317  0.66679167  0.41205187    -0.75200
Al503      Al  0.44460193  0.72779011  0.38144640     1.49000
C504        C  0.41831179  0.66167867  0.45670950     0.92100
O505        O  0.54010826  0.67424369  0.48338262    -0.81400
O506        O  0.57364871  0.79796376  0.41316502    -0.75000
Al507      Al  0.49907892  0.73160065  0.47923682     1.90100
O508        O  0.58725264  0.69865856  0.42460438    -0.74100
O509        O  0.53193892  0.77769126  0.33100750    -0.73900
O510        O  0.54174672  0.67647287  0.34616795    -0.79600
O511        O  0.45685026  0.78889374  0.34647486    -0.77800
O512        O  0.49913570  0.73222191  0.41419020    -1.13900
O513        O  0.41125170  0.76604681  0.42473232    -0.73100
C514        C  0.41868581  0.79143550  0.46224373     0.97600
C515        C  0.57958422  0.67224191  0.46139643     0.94000
Al516      Al  0.55379005  0.73725245  0.38170940     1.55600
O517        O  0.44467030  0.68602683  0.48601124    -0.77700
C518        C  0.49417625  0.80032530  0.32310139     0.98200
C519        C  0.57970393  0.80214035  0.45790500     0.93100
O520        O  0.55351908  0.77707334  0.48682859    -0.83000
C521        C  0.49466327  0.83905704  0.28484858     0.02400
C522        C  0.53894973  0.85459161  0.26415988    -0.13700
C523        C  0.54058904  0.88641788  0.22432773    -0.00100
C524        C  0.49812990  0.90348016  0.20584315    -0.12200
C525        C  0.45388450  0.89307446  0.22843695     0.02400
C526        C  0.45211672  0.85990861  0.26784605    -0.11700
H527        H  0.57219903  0.84193832  0.27882318     0.08000
H528        H  0.50068115  0.92943342  0.17583096     0.05500
H529        H  0.41824709  0.85041589  0.28491664     0.05400
C530        C  0.50379391  0.62559206  0.28510887     0.02400
C531        C  0.45940147  0.60971448  0.26480815    -0.13700
C532        C  0.45758862  0.57673973  0.22583505    -0.00100
C533        C  0.49987698  0.55869035  0.20796358    -0.12200
C534        C  0.54429516  0.57003756  0.22982319     0.02800
C535        C  0.54627532  0.60427132  0.26842915    -0.11700
H536        H  0.42622669  0.62301876  0.27906229     0.08000
H537        H  0.49711386  0.53173527  0.17874748     0.05500
H538        H  0.58026154  0.61435063  0.28501235     0.05400
O539        O  0.62467920  0.53875543  0.23448086    -0.82500
C540        C  0.67107540  0.91496623  0.07278962     0.96900
O541        O  0.63331794  0.93772798  0.08049545    -0.71600
O542        O  0.59091567  0.91677560  0.16202259    -0.75200
Al543      Al  0.61127945  0.97778964  0.13144714     1.49000
C544        C  0.58498892  0.91163153  0.20667732     0.92100
O545        O  0.37345178  0.92417598  0.23334093    -0.81400
O546        O  0.40699684  0.54793961  0.16319620    -0.75000
Al547      Al  0.66576053  0.98153499  0.22923570     1.90100
O548        O  0.42060073  0.94863115  0.17457983    -0.74100
O549        O  0.36528191  0.52771782  0.08102362    -0.73900
O550        O  0.37508671  0.92648899  0.09613684    -0.79600
O551        O  0.62352691  0.53890817  0.09649980    -0.77800
O552        O  0.66581484  0.98219939  0.16418902    -1.13900
O553        O  0.57793948  0.51603042  0.17475245    -0.73100
C554        C  0.58537155  0.54139353  0.21227988     0.97600
C555        C  0.41293024  0.92219348  0.21135773     0.94000
Al556      Al  0.38713502  0.98724839  0.13170684     1.55600
O557        O  0.61135236  0.93595757  0.23598991    -0.77700
C558        C  0.66084964  0.55035190  0.07312695     0.98200
C559        C  0.41305379  0.55208654  0.20793885     0.93100
O560        O  0.38687078  0.52699957  0.23684941    -0.83000
C561        C  0.67045298  0.87563328  0.53507021     0.02400
C562        C  0.62605846  0.85977069  0.51476478    -0.13700
C563        C  0.62424062  0.82679956  0.97578879    -0.00100
C564        C  0.33319355  0.80874650  0.95791444    -0.12200
C565        C  0.37761151  0.82008403  0.97977784     0.02400
C566        C  0.37959563  0.85430738  0.51838980    -0.11700
H567        H  0.59288592  0.87307836  0.52902138     0.08000
H568        H  0.33042920  0.78179444  0.92869620     0.05500
H569        H  0.41358217  0.86437335  0.53497906     0.05400
C570        C  0.66132773  0.58909830  0.53488531     0.02400
C571        C  0.61877650  0.60994807  0.51788554    -0.13700
C572        C  0.62054034  0.64312367  0.97848147    -0.00100
C573        C  0.66478545  0.65353278  0.95588743    -0.12200
C574        C  0.37391286  0.63647238  0.97436955     0.02400
C575        C  0.37227836  0.60464516  0.51420024    -0.11700
H576        H  0.58490735  0.60044507  0.53495268     0.08000
H577        H  0.66733606  0.67948647  0.92587552     0.05500
H578        H  0.40553002  0.59199459  0.52886122     0.05400
O579        O  0.45799755  0.78882135  0.98444078    -0.82500
C580        C  0.50440695  0.66493980  0.82281746     0.96900
O581        O  0.46664725  0.68770386  0.83051024    -0.71600
O582        O  0.42424321  0.66679178  0.91205186    -0.75200
Al583      Al  0.44460199  0.72779016  0.88144640     1.49000
C584        C  0.41831174  0.66167881  0.95670948     0.92100
O585        O  0.54010830  0.67424379  0.98338260    -0.81400
O586        O  0.57364874  0.79796386  0.91316505    -0.75000
Al587      Al  0.49907893  0.73160077  0.97923686     1.90100
O588        O  0.58725273  0.69865867  0.92460439    -0.74100
O589        O  0.53193903  0.77769146  0.83100767    -0.73900
O590        O  0.54174678  0.67647296  0.84616800    -0.79600
O591        O  0.45685028  0.78889365  0.84647479    -0.77800
O592        O  0.49913575  0.73222201  0.91419026    -1.13900
O593        O  0.41125178  0.76604686  0.92473227    -0.73100
C594        C  0.41868589  0.79143560  0.96224363     0.97600
C595        C  0.57958425  0.67224198  0.96139643     0.94000
Al596      Al  0.55379012  0.73725257  0.88170948     1.55600
O597        O  0.44467019  0.68602701  0.98601127    -0.77700
C598        C  0.49417629  0.80032540  0.82310149     0.98200
C599        C  0.57970399  0.80214043  0.95790502     0.93100
O600        O  0.55351915  0.77707343  0.98682863    -0.83000
C601        C  0.49466325  0.83905717  0.78484871     0.02400
C602        C  0.53894959  0.85459165  0.76415986    -0.13700
C603        C  0.54058899  0.88641775  0.72432763    -0.00100
C604        C  0.49812979  0.90347998  0.70584304    -0.12200
C605        C  0.45388441  0.89307448  0.72843699     0.02400
C606        C  0.45211659  0.85990875  0.76784625    -0.11700
H607        H  0.57219922  0.84193824  0.77882330     0.08000
H608        H  0.50068105  0.92943307  0.67583073     0.05500
H609        H  0.41824728  0.85041614  0.78491672     0.05400
C610        C  0.50379393  0.62559206  0.78510884     0.02400
C611        C  0.45940148  0.60971433  0.76480817    -0.13700
C612        C  0.45758865  0.57673953  0.72583508    -0.00100
C613        C  0.49987700  0.55869020  0.70796348    -0.12200
C614        C  0.54429518  0.57003757  0.72982310     0.02800
C615        C  0.54627525  0.60427121  0.76842914    -0.11700
H616        H  0.42622672  0.62301856  0.77906230     0.08000
H617        H  0.49711389  0.53173526  0.67874759     0.05500
H618        H  0.58026168  0.61435052  0.78501255     0.05400
O619        O  0.62467917  0.53875541  0.73448083    -0.82500
C620        C  0.67107544  0.91496631  0.57278962     0.96900
O621        O  0.63331800  0.93772802  0.58049542    -0.71600
O622        O  0.59091574  0.91677552  0.66202251    -0.75200
Al623      Al  0.61127951  0.97778966  0.63144709     1.49000
C624        C  0.58498891  0.91163146  0.70667724     0.92100
O625        O  0.37345168  0.92417604  0.73334094    -0.81400
O626        O  0.40699690  0.54793947  0.66319619    -0.75000
Al627      Al  0.66576055  0.98153502  0.72923574     1.90100
O628        O  0.42060066  0.94863114  0.67457982    -0.74100
O629        O  0.36528188  0.52771792  0.58102368    -0.73900
O630        O  0.37508663  0.92648909  0.59613689    -0.79600
O631        O  0.62352692  0.53890819  0.59649974    -0.77800
O632        O  0.66581490  0.98219946  0.66418904    -1.13900
O633        O  0.57793949  0.51603034  0.67475241    -0.73100
C634        C  0.58537155  0.54139354  0.71227979     0.97600
C635        C  0.41293012  0.92219347  0.71135772     0.94000
Al636      Al  0.38713498  0.98724846  0.63170688     1.55600
O637        O  0.61135230  0.93595760  0.73598983    -0.77700
C638        C  0.66084970  0.55035198  0.57312697     0.98200
C639        C  0.41305384  0.55208632  0.70793884     0.93100
O640        O  0.38687078  0.52699939  0.73684942    -0.83000
C641        C  0.00378629  0.37563338  0.03507010     0.02400
C642        C  0.95939182  0.35977072  0.01476468    -0.13700
C643        C  0.95757394  0.32679948  0.47578888    -0.00100
C644        C  0.66652692  0.30874652  0.45791452    -0.12200
C645        C  0.71094485  0.32008394  0.47977796     0.02400
C646        C  0.71292903  0.35430755  0.01838965    -0.11700
H647        H  0.92621919  0.37307839  0.02902131     0.08000
H648        H  0.66376259  0.28179453  0.42869616     0.05500
H649        H  0.74691551  0.36437355  0.03497889     0.05400
C650        C  0.99466110  0.08909832  0.03488534     0.02400
C651        C  0.95210985  0.10994811  0.01788558    -0.13700
C652        C  0.95387369  0.14312362  0.47848141    -0.00100
C653        C  0.99811882  0.15353265  0.45588736    -0.12200
C654        C  0.70724617  0.13647232  0.47436958     0.02400
C655        C  0.70561164  0.10464521  0.01420019    -0.11700
H656        H  0.91824077  0.10044521  0.03495275     0.08000
H657        H  0.00066944  0.17948628  0.42587549     0.05500
H658        H  0.73886343  0.09199465  0.02886120     0.05400
O659        O  0.79133074  0.28882109  0.48444088    -0.82500
C660        C  0.83774029  0.16493971  0.32281747     0.96900
O661        O  0.79998058  0.18770374  0.33051024    -0.71600
O662        O  0.75757654  0.16679158  0.41205187    -0.75200
Al663      Al  0.77793533  0.22779004  0.38144640     1.49000
C664        C  0.75164507  0.16167864  0.45670950     0.92100
O665        O  0.87344172  0.17424390  0.48338263    -0.81400
O666        O  0.90698215  0.29796372  0.41316502    -0.75000
Al667      Al  0.83241223  0.23160070  0.47923683     1.90100
O668        O  0.92058611  0.19865873  0.42460436    -0.74100
O669        O  0.86527232  0.27769140  0.33100755    -0.73900
O670        O  0.87508017  0.17647299  0.34616787    -0.79600
O671        O  0.79018362  0.28889366  0.34647484    -0.77800
O672        O  0.83246909  0.23222191  0.41419021    -1.13900
O673        O  0.74458508  0.26604676  0.42473228    -0.73100
C674        C  0.75201915  0.29143544  0.46224372     0.97600
C675        C  0.91291766  0.17224207  0.46139642     0.94000
Al676      Al  0.88712347  0.23725255  0.38170940     1.55600
O677        O  0.77800356  0.18602679  0.48601126    -0.77700
C678        C  0.82750955  0.30032530  0.32310140     0.98200
C679        C  0.91303730  0.30214037  0.45790500     0.93100
O680        O  0.88685228  0.27707355  0.48682859    -0.83000
C681        C  0.82799653  0.33905700  0.28484856     0.02400
C682        C  0.87228292  0.35459161  0.26415988    -0.13700
C683        C  0.87392235  0.38641784  0.22432775    -0.00100
C684        C  0.83146318  0.40348010  0.20584315    -0.12200
C685        C  0.78721775  0.39307441  0.22843695     0.02400
C686        C  0.78544991  0.35990856  0.26784607    -0.11700
H687        H  0.90553246  0.34193825  0.27882335     0.08000
H688        H  0.83401447  0.42943335  0.17583096     0.05500
H689        H  0.75158048  0.35041589  0.28491660     0.05400
C690        C  0.83712730  0.12559202  0.28510890     0.02400
C691        C  0.79273486  0.10971443  0.26480813    -0.13700
C692        C  0.79092201  0.07673965  0.22583505    -0.00100
C693        C  0.83321035  0.05869029  0.20796359    -0.12200
C694        C  0.87762853  0.07003751  0.22982321     0.02800
C695        C  0.87960863  0.10427124  0.26842915    -0.11700
H696        H  0.75955999  0.12301878  0.27906224     0.08000
H697        H  0.83044723  0.03173522  0.17874746     0.05500
H698        H  0.91359515  0.11435063  0.28501252     0.05400
O699        O  0.95801256  0.03875532  0.23448082    -0.82500
C700        C  0.00440870  0.41496632  0.07278961     0.96900
O701        O  0.96665118  0.43772795  0.08049553    -0.71600
O702        O  0.92424899  0.41677557  0.16202261    -0.75200
Al703      Al  0.94461276  0.47778964  0.13144716     1.49000
C704        C  0.91832225  0.41163150  0.20667733     0.92100
O705        O  0.70678498  0.42417597  0.23334089    -0.81400
O706        O  0.74033026  0.04793960  0.16319610    -0.75000
Al707      Al  0.99909388  0.48153505  0.22923570     1.90100
O708        O  0.75393402  0.44863112  0.17457984    -0.74100
O709        O  0.69861511  0.02771779  0.08102359    -0.73900
O710        O  0.70842000  0.42648911  0.09613682    -0.79600
O711        O  0.95686030  0.03890817  0.09649979    -0.77800
O712        O  0.99914818  0.48219940  0.16418902    -1.13900
O713        O  0.91127277  0.01603036  0.17475246    -0.73100
C714        C  0.91870489  0.04139346  0.21227988     0.97600
C715        C  0.74626346  0.42219344  0.21135773     0.94000
Al716      Al  0.72046832  0.48724842  0.13170687     1.55600
O717        O  0.94468572  0.43595757  0.23598991    -0.77700
C718        C  0.99418305  0.05035191  0.07312696     0.98200
C719        C  0.74638717  0.05208647  0.20793878     0.93100
O720        O  0.72020412  0.02699947  0.23684930    -0.83000
C721        C  0.00378633  0.37563322  0.53507022     0.02400
C722        C  0.95939189  0.35977060  0.51476476    -0.13700
C723        C  0.95757387  0.32679948  0.97578886    -0.00100
C724        C  0.66652692  0.30874643  0.95791459    -0.12200
C725        C  0.71094486  0.32008405  0.97977790     0.02400
C726        C  0.71292905  0.35430732  0.51838980    -0.11700
H727        H  0.92621913  0.37307834  0.52902144     0.08000
H728        H  0.66376259  0.28179425  0.92869633     0.05500
H729        H  0.74691559  0.36437327  0.53497904     0.05400
C730        C  0.99466106  0.08909826  0.53488528     0.02400
C731        C  0.95210982  0.10994801  0.51788545    -0.13700
C732        C  0.95387369  0.14312361  0.97848145    -0.00100
C733        C  0.99811881  0.15353273  0.95588745    -0.12200
C734        C  0.70724617  0.13647240  0.97436953     0.02400
C735        C  0.70561169  0.10464512  0.51420024    -0.11700
H736        H  0.91824075  0.10044510  0.53495255     0.08000
H737        H  0.00066941  0.17948658  0.92587542     0.05500
H738        H  0.73886326  0.09199463  0.52886123     0.05400
O739        O  0.79133078  0.28882124  0.98444085    -0.82500
C740        C  0.83774019  0.16493975  0.82281748     0.96900
O741        O  0.79998051  0.18770382  0.83051025    -0.71600
O742        O  0.75757660  0.16679172  0.91205184    -0.75200
Al743      Al  0.77793531  0.22779014  0.88144641     1.49000
C744        C  0.75164508  0.16167875  0.95670946     0.92100
O745        O  0.87344165  0.17424376  0.98338261    -0.81400
O746        O  0.90698190  0.29796383  0.91316509    -0.75000
Al747      Al  0.83241219  0.23160070  0.97923688     1.90100
O748        O  0.92058606  0.19865863  0.92460439    -0.74100
O749        O  0.86527234  0.27769138  0.83100764    -0.73900
O750        O  0.87508003  0.17647292  0.84616800    -0.79600
O751        O  0.79018366  0.28889375  0.84647484    -0.77800
O752        O  0.83246902  0.23222194  0.91419027    -1.13900
O753        O  0.74458508  0.26604684  0.92473228    -0.73100
C754        C  0.75201916  0.29143556  0.96224367     0.97600
C755        C  0.91291760  0.17224193  0.96139642     0.94000
Al756      Al  0.88712338  0.23725252  0.88170949     1.55600
O757        O  0.77800352  0.18602690  0.98601127    -0.77700
C758        C  0.82750962  0.30032540  0.82310147     0.98200
C759        C  0.91303717  0.30214039  0.95790506     0.93100
O760        O  0.88685231  0.27707342  0.98682865    -0.83000
C761        C  0.82799665  0.33905714  0.78484865     0.02400
C762        C  0.87228297  0.35459166  0.76415981    -0.13700
C763        C  0.87392236  0.38641788  0.72432769    -0.00100
C764        C  0.83146317  0.40348016  0.70584308    -0.12200
C765        C  0.78721779  0.39307448  0.72843700     0.02400
C766        C  0.78545002  0.35990873  0.76784619    -0.11700
H767        H  0.90553262  0.34193817  0.77882319     0.08000
H768        H  0.83401443  0.42943314  0.67583094     0.05500
H769        H  0.75158055  0.35041600  0.78491676     0.05400
C770        C  0.83712722  0.12559207  0.78510886     0.02400
C771        C  0.79273477  0.10971444  0.76480814    -0.13700
C772        C  0.79092200  0.07673960  0.72583508    -0.00100
C773        C  0.83321036  0.05869036  0.70796344    -0.12200
C774        C  0.87762852  0.07003761  0.72982314     0.02800
C775        C  0.87960856  0.10427120  0.76842921    -0.11700
H776        H  0.75956004  0.12301867  0.77906219     0.08000
H777        H  0.83044726  0.03173550  0.67874743     0.05500
H778        H  0.91359494  0.11435045  0.78501265     0.05400
O779        O  0.95801254  0.03875539  0.73448087    -0.82500
C780        C  0.00440869  0.41496625  0.57278962     0.96900
O781        O  0.96665124  0.43772794  0.58049542    -0.71600
O782        O  0.92424910  0.41677545  0.66202251    -0.75200
Al783      Al  0.94461282  0.47778960  0.63144710     1.49000
C784        C  0.91832229  0.41163145  0.70667724     0.92100
O785        O  0.70678505  0.42417600  0.73334095    -0.81400
O786        O  0.74033026  0.04793961  0.66319619    -0.75000
Al787      Al  0.99909389  0.48153501  0.72923573     1.90100
O788        O  0.75393402  0.44863107  0.67457980    -0.74100
O789        O  0.69861518  0.02771791  0.58102370    -0.73900
O790        O  0.70842004  0.42648904  0.59613689    -0.79600
O791        O  0.95686030  0.03890817  0.59649972    -0.77800
O792        O  0.99914822  0.48219941  0.66418902    -1.13900
O793        O  0.91127286  0.01603049  0.67475238    -0.73100
C794        C  0.91870490  0.04139357  0.71227982     0.97600
C795        C  0.74626348  0.42219343  0.71135771     0.94000
Al796      Al  0.72046835  0.48724839  0.63170688     1.55600
O797        O  0.94468573  0.43595755  0.73598982    -0.77700
C798        C  0.99418307  0.05035195  0.57312695     0.98200
C799        C  0.74638723  0.05208637  0.70793885     0.93100
O800        O  0.72020420  0.02699935  0.73684939    -0.83000
C801        C  0.00378630  0.87563325  0.03507014     0.02400
C802        C  0.95939184  0.85977070  0.01476465    -0.13700
C803        C  0.95757388  0.82679951  0.47578888    -0.00100
C804        C  0.66652688  0.80874658  0.45791451    -0.12200
C805        C  0.71094480  0.82008400  0.47977796     0.02400
C806        C  0.71292900  0.85430739  0.01838969    -0.11700
H807        H  0.92621923  0.87307842  0.02902124     0.08000
H808        H  0.66376258  0.78179458  0.42869616     0.05500
H809        H  0.74691557  0.86437331  0.03497898     0.05400
C810        C  0.99466110  0.58909822  0.03488526     0.02400
C811        C  0.95210988  0.60994812  0.01788558    -0.13700
C812        C  0.95387367  0.64312363  0.47848152    -0.00100
C813        C  0.99811880  0.65353272  0.45588744    -0.12200
C814        C  0.70724617  0.63647236  0.47436958     0.02400
C815        C  0.70561167  0.60464506  0.01420012    -0.11700
H816        H  0.91824081  0.60044529  0.03495280     0.08000
H817        H  0.00066937  0.67948627  0.42587558     0.05500
H818        H  0.73886336  0.59199448  0.02886109     0.05400
O819        O  0.79133070  0.78882115  0.48444088    -0.82500
C820        C  0.83774031  0.66493970  0.32281747     0.96900
O821        O  0.79998063  0.68770380  0.33051023    -0.71600
O822        O  0.75757655  0.66679163  0.41205185    -0.75200
Al823      Al  0.77793533  0.72779009  0.38144639     1.49000
C824        C  0.75164506  0.66167869  0.45670948     0.92100
O825        O  0.87344160  0.67424373  0.48338262    -0.81400
O826        O  0.90698193  0.79796379  0.41316505    -0.75000
Al827      Al  0.83241217  0.73160066  0.47923683     1.90100
O828        O  0.92058604  0.69865860  0.42460440    -0.74100
O829        O  0.86527231  0.77769127  0.33100748    -0.73900
O830        O  0.87508018  0.67647286  0.34616793    -0.79600
O831        O  0.79018366  0.78889372  0.34647488    -0.77800
O832        O  0.83246905  0.73222189  0.41419021    -1.13900
O833        O  0.74458505  0.76604682  0.42473228    -0.73100
C834        C  0.75201909  0.79143549  0.46224372     0.97600
C835        C  0.91291759  0.67224193  0.46139643     0.94000
Al836      Al  0.88712343  0.73725247  0.38170941     1.55600
O837        O  0.77800350  0.68602686  0.48601126    -0.77700
C838        C  0.82750958  0.80032529  0.32310139     0.98200
C839        C  0.91303719  0.80214036  0.45790502     0.93100
O840        O  0.88685228  0.77707339  0.48682861    -0.83000
C841        C  0.82799658  0.83905703  0.28484857     0.02400
C842        C  0.87228294  0.85459165  0.26415986    -0.13700
C843        C  0.87392237  0.88641789  0.22432775    -0.00100
C844        C  0.83146321  0.90348017  0.20584316    -0.12200
C845        C  0.78721779  0.89307447  0.22843696     0.02400
C846        C  0.78544996  0.85990860  0.26784606    -0.11700
H847        H  0.90553257  0.84193822  0.27882332     0.08000
H848        H  0.83401450  0.92943342  0.17583096     0.05500
H849        H  0.75158045  0.85041588  0.28491657     0.05400
C850        C  0.83712729  0.62559206  0.28510888     0.02400
C851        C  0.79273484  0.60971449  0.26480816    -0.13700
C852        C  0.79092199  0.57673974  0.22583507    -0.00100
C853        C  0.83321034  0.55869036  0.20796358    -0.12200
C854        C  0.87762852  0.57003757  0.22982320     0.02800
C855        C  0.87960863  0.60427130  0.26842913    -0.11700
H856        H  0.75956003  0.62301879  0.27906232     0.08000
H857        H  0.83044719  0.53173529  0.17874747     0.05500
H858        H  0.91359513  0.61435068  0.28501249     0.05400
O859        O  0.95801257  0.53875542  0.23448081    -0.82500
C860        C  0.00440873  0.91496624  0.07278962     0.96900
O861        O  0.96665125  0.93772796  0.08049548    -0.71600
O862        O  0.92424902  0.91677560  0.16202261    -0.75200
Al863      Al  0.94461277  0.97778964  0.13144714     1.49000
C864        C  0.91832226  0.91163154  0.20667732     0.92100
O865        O  0.70678500  0.92417595  0.23334087    -0.81400
O866        O  0.74033024  0.54793959  0.16319619    -0.75000
Al867      Al  0.99909389  0.98153500  0.22923568     1.90100
O868        O  0.75393406  0.94863117  0.17457985    -0.74100
O869        O  0.69861513  0.52771781  0.08102364    -0.73900
O870        O  0.70842002  0.92648898  0.09613687    -0.79600
O871        O  0.95686030  0.53890818  0.09649980    -0.77800
O872        O  0.99914819  0.98219938  0.16418900    -1.13900
O873        O  0.91127278  0.51603040  0.17475247    -0.73100
C874        C  0.91870489  0.54139353  0.21227987     0.97600
C875        C  0.74626350  0.92219348  0.21135773     0.94000
Al876      Al  0.72046833  0.98724839  0.13170685     1.55600
O877        O  0.94468576  0.93595755  0.23598991    -0.77700
C878        C  0.99418306  0.55035190  0.07312695     0.98200
C879        C  0.74638716  0.55208652  0.20793885     0.93100
O880        O  0.72020412  0.52699955  0.23684940    -0.83000
C881        C  0.00378635  0.87563328  0.53507021     0.02400
C882        C  0.95939188  0.85977066  0.51476475    -0.13700
C883        C  0.95757389  0.82679953  0.97578879    -0.00100
C884        C  0.66652691  0.80874652  0.95791444    -0.12200
C885        C  0.71094484  0.82008406  0.97977784     0.02400
C886        C  0.71292897  0.85430736  0.51838980    -0.11700
H887        H  0.92621915  0.87307842  0.52902145     0.08000
H888        H  0.66376257  0.78179446  0.92869621     0.05500
H889        H  0.74691559  0.86437331  0.53497910     0.05400
C890        C  0.99466108  0.58909830  0.53488532     0.02400
C891        C  0.95210984  0.60994804  0.51788554    -0.13700
C892        C  0.95387373  0.64312365  0.97848147    -0.00100
C893        C  0.99811885  0.65353277  0.95588743    -0.12200
C894        C  0.70724618  0.63647240  0.97436957     0.02400
C895        C  0.70561171  0.60464516  0.51420022    -0.11700
H896        H  0.91824071  0.60044505  0.53495266     0.08000
H897        H  0.00066943  0.67948647  0.92587554     0.05500
H898        H  0.73886337  0.59199460  0.52886119     0.05400
O899        O  0.79133076  0.78882129  0.98444079    -0.82500
C900        C  0.83774021  0.66493979  0.82281746     0.96900
O901        O  0.79998051  0.68770383  0.83051025    -0.71600
O902        O  0.75757644  0.66679181  0.91205186    -0.75200
Al903      Al  0.77793524  0.72779015  0.88144640     1.49000
C904        C  0.75164505  0.66167878  0.95670948     0.92100
O905        O  0.87344168  0.67424383  0.98338261    -0.81400
O906        O  0.90698191  0.79796389  0.91316507    -0.75000
Al907      Al  0.83241220  0.73160076  0.97923686     1.90100
O908        O  0.92058609  0.69865869  0.92460439    -0.74100
O909        O  0.86527228  0.77769146  0.83100770    -0.73900
O910        O  0.87508005  0.67647298  0.84616798    -0.79600
O911        O  0.79018353  0.78889364  0.84647476    -0.77800
O912        O  0.83246901  0.73222199  0.91419027    -1.13900
O913        O  0.74458501  0.76604685  0.92473226    -0.73100
C914        C  0.75201913  0.79143558  0.96224362     0.97600
C915        C  0.91291764  0.67224200  0.96139642     0.94000
Al916      Al  0.88712338  0.73725259  0.88170949     1.55600
O917        O  0.77800354  0.68602693  0.98601125    -0.77700
C918        C  0.82750955  0.80032539  0.82310148     0.98200
C919        C  0.91303719  0.80214045  0.95790504     0.93100
O920        O  0.88685233  0.77707349  0.98682865    -0.83000
C921        C  0.82799657  0.83905716  0.78484870     0.02400
C922        C  0.87228294  0.85459164  0.76415988    -0.13700
C923        C  0.87392237  0.88641775  0.72432765    -0.00100
C924        C  0.83146318  0.90347997  0.70584304    -0.12200
C925        C  0.78721779  0.89307448  0.72843699     0.02400
C926        C  0.78544998  0.85990878  0.76784621    -0.11700
H927        H  0.90553252  0.84193822  0.77882333     0.08000
H928        H  0.83401446  0.92943305  0.67583071     0.05500
H929        H  0.75158042  0.85041611  0.78491680     0.05400
C930        C  0.83712723  0.62559206  0.78510885     0.02400
C931        C  0.79273481  0.60971431  0.76480816    -0.13700
C932        C  0.79092199  0.57673950  0.72583510    -0.00100
C933        C  0.83321036  0.55869021  0.70796349    -0.12200
C934        C  0.87762854  0.57003758  0.72982312     0.02800
C935        C  0.87960858  0.60427124  0.76842915    -0.11700
H936        H  0.75955996  0.62301854  0.77906230     0.08000
H937        H  0.83044725  0.53173529  0.67874761     0.05500
H938        H  0.91359497  0.61435055  0.78501257     0.05400
O939        O  0.95801257  0.53875541  0.73448084    -0.82500
C940        C  0.00440872  0.91496631  0.57278962     0.96900
O941        O  0.96665127  0.93772799  0.58049543    -0.71600
O942        O  0.92424911  0.91677552  0.66202252    -0.75200
Al943      Al  0.94461282  0.97778966  0.63144709     1.49000
C944        C  0.91832230  0.91163145  0.70667725     0.92100
O945        O  0.70678507  0.92417604  0.73334093    -0.81400
O946        O  0.74033031  0.54793944  0.66319618    -0.75000
Al947      Al  0.99909391  0.98153503  0.72923573     1.90100
O948        O  0.75393408  0.94863116  0.67457982    -0.74100
O949        O  0.69861520  0.52771793  0.58102371    -0.73900
O950        O  0.70842007  0.92648909  0.59613689    -0.79600
O951        O  0.95686032  0.53890818  0.59649974    -0.77800
O952        O  0.99914823  0.98219947  0.66418902    -1.13900
O953        O  0.91127285  0.51603035  0.67475243    -0.73100
C954        C  0.91870492  0.54139353  0.71227981     0.97600
C955        C  0.74626352  0.92219349  0.71135771     0.94000
Al956      Al  0.72046838  0.98724847  0.63170688     1.55600
O957        O  0.94468572  0.93595757  0.73598983    -0.77700
C958        C  0.99418309  0.55035198  0.57312697     0.98200
C959        C  0.74638719  0.55208631  0.70793883     0.93100
O960        O  0.72020406  0.52699943  0.73684940    -0.83000
loop_ 
_geom_bond_atom_site_label_1 
_geom_bond_atom_site_label_2 
_geom_bond_distance 
_geom_bond_site_symmetry_2 
_ccdc_geom_bond_type 
C1            C2   1.416       .  A
C1          C326   1.417       .  A
C1           C60   1.480       .  S
C2           C83   1.394   1_554  A
C2            H7   1.084       .  S
C3           C82   1.394       .  A
C3          C324   1.389       .  A
C3           C39   1.473       .  S
C4            C5   1.408   1_655  A
C4          C643   1.389       .  A
C4            H8   1.084       .  S
C5           C86   1.407       .  A
C5           C34   1.488       .  S
C6          C641   1.417       .  A
C6           C85   1.407   1_554  A
C6            H9   1.083       .  S
C10          C11   1.417       .  A
C10         C335   1.416       .  A
C10          C78   1.480       .  S
C11          C92   1.407   1_554  A
C11          H16   1.083       .  S
C12          C13   1.409       .  A
C12          C91   1.407       .  A
C12          C35   1.488       .  S
C13         C334   1.390       .  A
C13          H17   1.084       .  S
C14         C653   1.390   1_455  A
C14          C95   1.394       .  A
C14          C24   1.474       .  S
C15         C650   1.416   1_455  A
C15          C94   1.394   1_554  A
C15          H18   1.084       .  S
O19          C34   1.268       .  A
O19         Al27   1.948       .  S
C20          C50   1.480       .  S
C20          O30   1.260       .  A
C20          O21   1.258       .  A
O21         Al23   1.892       .  S
O22          C24   1.262       .  A
O22         Al23   1.897       .  S
Al23         O31   1.911       .  S
Al23         O33   1.853       .  S
Al23         O32   1.780       .  S
C24          O37   1.262       .  A
O25          C35   1.268       .  A
O25         Al27   1.948       .  S
O26          C39   1.262       .  A
O26         Al36   1.898       .  S
Al27         O40   1.920       .  S
Al27         O37   1.918       .  S
Al27         O32   1.812       .  S
O28          C35   1.256       .  A
O28         Al36   1.853       .  S
O29          C38   1.258       .  A
O29         Al36   1.891       .  S
O30         Al36   1.911       .  S
O31          C38   1.260       .  A
O32         Al36   1.780       .  S
O33          C34   1.256       .  A
C38          C41   1.480       .  S
C39          O40   1.262       .  A
C41          C42   1.416       .  A
C41          C46   1.417       .  A
C42          C43   1.394       .  A
C42          H47   1.084       .  S
C43          C44   1.390       .  A
C43          C64   1.474       .  S
C44          C45   1.409       .  A
C44          H48   1.084       .  S
C45          C46   1.407       .  A
C45          C75   1.488       .  S
C46          H49   1.083       .  S
C50          C51   1.416       .  A
C50          C55   1.417       .  A
C51          C52   1.394       .  A
C51          H56   1.084       .  S
C52          C53   1.389       .  A
C52          C79   1.473       .  S
C53          C54   1.408       .  A
C53          H57   1.084       .  S
C54          C55   1.407       .  A
C54          C74   1.488       .  S
C55          H58   1.083       .  S
O59          C74   1.268       .  A
O59        Al227   1.948   1_545  S
C60          O61   1.258       .  A
C60         O390   1.260       .  A
O61         Al63   1.892       .  S
O62          C64   1.262       .  A
O62         Al63   1.897       .  S
Al63        O231   1.911       .  S
Al63        O233   1.853       .  S
Al63         O72   1.780       .  S
C64          O77   1.262       .  A
O65          C75   1.268       .  A
O65        Al707   1.948   1_455  S
O66          C79   1.262       .  A
O66        Al236   1.898   1_545  S
Al67         O77   1.918       .  S
Al67        O219   1.948       .  S
Al67        O385   1.948       .  S
Al67        O560   1.920       .  S
Al67         O72   1.812       .  S
O68          C75   1.256       .  A
O68         Al76   1.853       .  S
O69         C718   1.258   1_455  A
O69        Al236   1.891   1_545  S
O70         C700   1.260       .  A
O70         Al76   1.911       .  S
O71          C78   1.260       .  A
O71        Al223   1.911   1_545  S
O72        Al396   1.780       .  S
O73          C74   1.256       .  A
O73        Al223   1.853   1_545  S
Al76        O226   1.898       .  S
Al76        O229   1.891       .  S
Al76        O712   1.780   1_455  S
C78         O389   1.258       .  A
C79          O80   1.262       .  A
O80        Al867   1.920   1_445  S
C81          C82   1.416       .  A
C81         C406   1.417       .  A
C81         C140   1.480       .  S
C82          H87   1.084       .  S
C83         C404   1.389       .  A
C83         C119   1.473       .  S
C84         C723   1.389       .  A
C84          C85   1.408   1_655  A
C84          H88   1.084       .  S
C85         C114   1.488       .  S
C86         C721   1.417       .  A
C86          H89   1.083       .  S
C90          C91   1.417       .  A
C90         C415   1.416       .  A
C90         C158   1.480       .  S
C91          H96   1.083       .  S
C92          C93   1.409       .  A
C92         C115   1.488       .  S
C93         C414   1.390       .  A
C93          H97   1.084       .  S
C94         C733   1.390   1_455  A
C94         C104   1.474       .  S
C95         C730   1.416   1_455  A
C95          H98   1.084       .  S
O99         C114   1.268       .  A
O99        Al107   1.948       .  S
C100        C130   1.480       .  S
C100        O110   1.260       .  A
C100        O101   1.258       .  A
O101       Al103   1.892       .  S
O102        C104   1.262       .  A
O102       Al103   1.897       .  S
Al103       O111   1.911       .  S
Al103       O113   1.853       .  S
Al103       O112   1.780       .  S
C104        O117   1.262       .  A
O105        C115   1.268       .  A
O105       Al107   1.948       .  S
O106        C119   1.262       .  A
O106       Al116   1.898       .  S
Al107       O120   1.920       .  S
Al107       O117   1.918       .  S
Al107       O112   1.812       .  S
O108        C115   1.256       .  A
O108       Al116   1.853       .  S
O109        C118   1.258       .  A
O109       Al116   1.891       .  S
O110       Al116   1.911       .  S
O111        C118   1.260       .  A
O112       Al116   1.780       .  S
O113        C114   1.256       .  A
C118        C121   1.480       .  S
C119        O120   1.262       .  A
C121        C122   1.416       .  A
C121        C126   1.417       .  A
C122        C123   1.394       .  A
C122        H127   1.084       .  S
C123        C124   1.390       .  A
C123        C144   1.474       .  S
C124        C125   1.409       .  A
C124        H128   1.084       .  S
C125        C126   1.407       .  A
C125        C155   1.488       .  S
C126        H129   1.083       .  S
C130        C131   1.416       .  A
C130        C135   1.417       .  A
C131        C132   1.394       .  A
C131        H136   1.084       .  S
C132        C133   1.389       .  A
C132        C159   1.473       .  S
C133        C134   1.408       .  A
C133        H137   1.084       .  S
C134        C135   1.407       .  A
C134        C154   1.488       .  S
C135        H138   1.083       .  S
O139        C154   1.268       .  A
O139       Al307   1.948   1_545  S
C140        O470   1.260       .  A
C140        O141   1.258       .  A
O141       Al143   1.892       .  S
O142        C144   1.262       .  A
O142       Al143   1.897       .  S
Al143       O311   1.911       .  S
Al143       O313   1.853       .  S
Al143       O152   1.780       .  S
C144        O157   1.262       .  A
O145        C155   1.268       .  A
O145       Al787   1.948   1_455  S
O146        C159   1.262       .  A
O146       Al316   1.898   1_545  S
Al147       O299   1.948       .  S
Al147       O465   1.948       .  S
Al147       O640   1.920       .  S
Al147       O157   1.918       .  S
Al147       O152   1.812       .  S
O148        C155   1.256       .  A
O148       Al156   1.853       .  S
O149        C798   1.258   1_455  A
O149       Al316   1.891   1_545  S
O150        C780   1.260       .  A
O150       Al156   1.911       .  S
O151        C158   1.260       .  A
O151       Al303   1.911   1_545  S
O152       Al476   1.780       .  S
O153        C154   1.256       .  A
O153       Al303   1.853   1_545  S
Al156       O306   1.898       .  S
Al156       O309   1.891       .  S
Al156       O792   1.780   1_455  S
C158        O469   1.258       .  A
C159        O160   1.262       .  A
O160       Al947   1.920   1_445  S
C161        C162   1.416       .  A
C161        C486   1.417       .  A
C161        C220   1.480       .  S
C162        C243   1.394   1_554  A
C162        H167   1.084       .  S
C163        C242   1.394       .  A
C163        C484   1.389       .  A
C163        C199   1.473       .  S
C164        C803   1.389       .  A
C164        C165   1.408   1_655  A
C164        H168   1.084       .  S
C165        C246   1.407       .  A
C165        C194   1.488       .  S
C166        C801   1.417       .  A
C166        C245   1.407   1_554  A
C166        H169   1.083       .  S
C170        C171   1.417       .  A
C170        C495   1.416       .  A
C170        C238   1.480       .  S
C171        C252   1.407   1_554  A
C171        H176   1.083       .  S
C172        C251   1.407       .  A
C172        C173   1.409       .  A
C172        C195   1.488       .  S
C173        C494   1.390       .  A
C173        H177   1.084       .  S
C174        C813   1.390   1_455  A
C174        C255   1.394       .  A
C174        C184   1.474       .  S
C175        C810   1.416   1_455  A
C175        C254   1.394   1_554  A
C175        H178   1.084       .  S
O179        C194   1.268       .  A
O179       Al187   1.948       .  S
C180        C210   1.480       .  S
C180        O190   1.260       .  A
C180        O181   1.258       .  A
O181       Al183   1.892       .  S
O182        C184   1.262       .  A
O182       Al183   1.897       .  S
Al183       O191   1.911       .  S
Al183       O193   1.853       .  S
Al183       O192   1.780       .  S
C184        O197   1.262       .  A
O185        C195   1.268       .  A
O185       Al187   1.948       .  S
O186        C199   1.262       .  A
O186       Al196   1.898       .  S
Al187       O200   1.920       .  S
Al187       O197   1.918       .  S
Al187       O192   1.812       .  S
O188        C195   1.256       .  A
O188       Al196   1.853       .  S
O189        C198   1.258       .  A
O189       Al196   1.891       .  S
O190       Al196   1.911       .  S
O191        C198   1.260       .  A
O192       Al196   1.780       .  S
O193        C194   1.256       .  A
C198        C201   1.480       .  S
C199        O200   1.262       .  A
C201        C202   1.416       .  A
C201        C206   1.417       .  A
C202        C203   1.394       .  A
C202        H207   1.084       .  S
C203        C204   1.390       .  A
C203        C224   1.474       .  S
C204        C205   1.409       .  A
C204        H208   1.084       .  S
C205        C206   1.407       .  A
C205        C235   1.488       .  S
C206        H209   1.083       .  S
C210        C211   1.416       .  A
C210        C215   1.417       .  A
C211        C212   1.394       .  A
C211        H216   1.084       .  S
C212        C213   1.389       .  A
C212        C239   1.473       .  S
C213        C214   1.408       .  A
C213        H217   1.084       .  S
C214        C215   1.407       .  A
C214        C234   1.488       .  S
C215        H218   1.083       .  S
O219        C234   1.268       .  A
C220        O550   1.260       .  A
C220        O221   1.258       .  A
O221       Al223   1.892       .  S
O222        C224   1.262       .  A
O222       Al223   1.897       .  S
Al223       O232   1.780       .  S
C224        O237   1.262       .  A
O225        C235   1.268       .  A
O225       Al867   1.948   1_455  S
O226        C239   1.262       .  A
Al227       O545   1.948       .  S
Al227       O400   1.920   1_565  S
Al227       O237   1.918       .  S
Al227       O232   1.812       .  S
O228        C235   1.256       .  A
O228       Al236   1.853       .  S
O229        C878   1.258   1_455  A
O230        C860   1.260       .  A
O230       Al236   1.911       .  S
O231        C238   1.260       .  A
O232       Al556   1.780       .  S
O233        C234   1.256       .  A
Al236       O872   1.780   1_455  S
C238        O549   1.258       .  A
C239        O240   1.262       .  A
O240       Al707   1.920   1_455  S
C241        C242   1.416       .  A
C241        C566   1.417       .  A
C241        C300   1.480       .  S
C242        H247   1.084       .  S
C243        C564   1.389       .  A
C243        C279   1.473       .  S
C244        C883   1.389       .  A
C244        C245   1.408   1_655  A
C244        H248   1.084       .  S
C245        C274   1.488       .  S
C246        C881   1.417       .  A
C246        H249   1.083       .  S
C250        C251   1.417       .  A
C250        C575   1.416       .  A
C250        C318   1.480       .  S
C251        H256   1.083       .  S
C252        C253   1.409       .  A
C252        C275   1.488       .  S
C253        C574   1.390       .  A
C253        H257   1.084       .  S
C254        C893   1.390   1_455  A
C254        C264   1.474       .  S
C255        C890   1.416   1_455  A
C255        H258   1.084       .  S
O259        C274   1.268       .  A
O259       Al267   1.948       .  S
C260        C290   1.480       .  S
C260        O270   1.260       .  A
C260        O261   1.258       .  A
O261       Al263   1.892       .  S
O262        C264   1.262       .  A
O262       Al263   1.897       .  S
Al263       O271   1.911       .  S
Al263       O273   1.853       .  S
Al263       O272   1.780       .  S
C264        O277   1.262       .  A
O265        C275   1.268       .  A
O265       Al267   1.948       .  S
O266        C279   1.262       .  A
O266       Al276   1.898       .  S
Al267       O280   1.920       .  S
Al267       O277   1.918       .  S
Al267       O272   1.812       .  S
O268        C275   1.256       .  A
O268       Al276   1.853       .  S
O269        C278   1.258       .  A
O269       Al276   1.891       .  S
O270       Al276   1.911       .  S
O271        C278   1.260       .  A
O272       Al276   1.780       .  S
O273        C274   1.256       .  A
C278        C281   1.480       .  S
C279        O280   1.262       .  A
C281        C282   1.416       .  A
C281        C286   1.417       .  A
C282        C283   1.394       .  A
C282        H287   1.084       .  S
C283        C284   1.390       .  A
C283        C304   1.474       .  S
C284        C285   1.409       .  A
C284        H288   1.084       .  S
C285        C286   1.407       .  A
C285        C315   1.488       .  S
C286        H289   1.083       .  S
C290        C291   1.416       .  A
C290        C295   1.417       .  A
C291        C292   1.394       .  A
C291        H296   1.084       .  S
C292        C293   1.389       .  A
C292        C319   1.473       .  S
C293        C294   1.408       .  A
C293        H297   1.084       .  S
C294        C295   1.407       .  A
C294        C314   1.488       .  S
C295        H298   1.083       .  S
O299        C314   1.268       .  A
C300        O630   1.260       .  A
C300        O301   1.258       .  A
O301       Al303   1.892       .  S
O302        C304   1.262       .  A
O302       Al303   1.897       .  S
Al303       O312   1.780       .  S
C304        O317   1.262       .  A
O305        C315   1.268       .  A
O305       Al947   1.948   1_455  S
O306        C319   1.262       .  A
Al307       O625   1.948       .  S
Al307       O480   1.920   1_565  S
Al307       O317   1.918       .  S
Al307       O312   1.812       .  S
O308        C315   1.256       .  A
O308       Al316   1.853       .  S
O309        C958   1.258   1_455  A
O310        C940   1.260       .  A
O310       Al316   1.911       .  S
O311        C318   1.260       .  A
O312       Al636   1.780       .  S
O313        C314   1.256       .  A
Al316       O952   1.780   1_455  S
C318        O629   1.258       .  A
C319        O320   1.262       .  A
O320       Al787   1.920   1_455  S
C321        C322   1.416       .  A
C321        C646   1.417       .  A
C321        C380   1.480       .  S
C322        C403   1.394   1_554  A
C322        H327   1.084       .  S
C323        C402   1.394       .  A
C323        C644   1.389       .  A
C323        C359   1.473       .  S
C324        C325   1.408       .  A
C324        H328   1.084       .  S
C325        C406   1.407       .  A
C325        C354   1.488       .  S
C326        C405   1.407   1_554  A
C326        H329   1.083       .  S
C330        C331   1.417       .  A
C330        C655   1.416       .  A
C330        C398   1.480       .  S
C331        C412   1.407   1_554  A
C331        H336   1.083       .  S
C332        C411   1.407       .  A
C332        C333   1.409       .  A
C332        C355   1.488       .  S
C333        C654   1.390       .  A
C333        H337   1.084       .  S
C334        C415   1.394       .  A
C334        C344   1.474       .  S
C335        C414   1.394   1_554  A
C335        H338   1.084       .  S
O339        C354   1.268       .  A
O339       Al347   1.948       .  S
C340        C370   1.480       .  S
C340        O350   1.260       .  A
C340        O341   1.258       .  A
O341       Al343   1.892       .  S
O342        C344   1.262       .  A
O342       Al343   1.897       .  S
Al343       O351   1.911       .  S
Al343       O353   1.853       .  S
Al343       O352   1.780       .  S
C344        O357   1.262       .  A
O345        C355   1.268       .  A
O345       Al347   1.948       .  S
O346        C359   1.262       .  A
O346       Al356   1.898       .  S
Al347       O360   1.920       .  S
Al347       O357   1.918       .  S
Al347       O352   1.812       .  S
O348        C355   1.256       .  A
O348       Al356   1.853       .  S
O349        C358   1.258       .  A
O349       Al356   1.891       .  S
O350       Al356   1.911       .  S
O351        C358   1.260       .  A
O352       Al356   1.780       .  S
O353        C354   1.256       .  A
C358        C361   1.480       .  S
C359        O360   1.262       .  A
C361        C362   1.416       .  A
C361        C366   1.417       .  A
C362        C363   1.394       .  A
C362        H367   1.084       .  S
C363        C364   1.390       .  A
C363        C384   1.474       .  S
C364        C365   1.409       .  A
C364        H368   1.084       .  S
C365        C366   1.407       .  A
C365        C395   1.488       .  S
C366        H369   1.083       .  S
C370        C371   1.416       .  A
C370        C375   1.417       .  A
C371        C372   1.394       .  A
C371        H376   1.084       .  S
C372        C373   1.389       .  A
C372        C399   1.473       .  S
C373        C374   1.408       .  A
C373        H377   1.084       .  S
C374        C375   1.407       .  A
C374        C394   1.488       .  S
C375        H378   1.083       .  S
O379        C394   1.268       .  A
O379       Al547   1.948   1_545  S
C380        O710   1.260       .  A
C380        O381   1.258       .  A
O381       Al383   1.892       .  S
O382        C384   1.262       .  A
O382       Al383   1.897       .  S
Al383       O551   1.911       .  S
Al383       O553   1.853       .  S
Al383       O392   1.780       .  S
C384        O397   1.262       .  A
O385        C395   1.268       .  A
O386        C399   1.262       .  A
O386       Al556   1.898   1_545  S
Al387       O539   1.948       .  S
Al387       O705   1.948       .  S
Al387       O880   1.920       .  S
Al387       O397   1.918       .  S
Al387       O392   1.812       .  S
O388        C395   1.256       .  A
O388       Al396   1.853       .  S
O389       Al556   1.891   1_545  S
O390       Al396   1.911       .  S
O391        C398   1.260       .  A
O391       Al543   1.911   1_545  S
O392       Al716   1.780       .  S
O393        C394   1.256       .  A
O393       Al543   1.853   1_545  S
Al396       O546   1.898       .  S
Al396       O549   1.891       .  S
C398        O709   1.258       .  A
C399        O400   1.262       .  A
C401        C402   1.416       .  A
C401        C726   1.417       .  A
C401        C460   1.480       .  S
C402        H407   1.084       .  S
C403        C724   1.389       .  A
C403        C439   1.473       .  S
C404        C405   1.408       .  A
C404        H408   1.084       .  S
C405        C434   1.488       .  S
C406        H409   1.083       .  S
C410        C411   1.417       .  A
C410        C735   1.416       .  A
C410        C478   1.480       .  S
C411        H416   1.083       .  S
C412        C413   1.409       .  A
C412        C435   1.488       .  S
C413        C734   1.390       .  A
C413        H417   1.084       .  S
C414        C424   1.474       .  S
C415        H418   1.084       .  S
O419        C434   1.268       .  A
O419       Al427   1.948       .  S
C420        C450   1.480       .  S
C420        O430   1.260       .  A
C420        O421   1.258       .  A
O421       Al423   1.892       .  S
O422        C424   1.262       .  A
O422       Al423   1.897       .  S
Al423       O431   1.911       .  S
Al423       O433   1.853       .  S
Al423       O432   1.780       .  S
C424        O437   1.262       .  A
O425        C435   1.268       .  A
O425       Al427   1.948       .  S
O426        C439   1.262       .  A
O426       Al436   1.898       .  S
Al427       O440   1.920       .  S
Al427       O437   1.918       .  S
Al427       O432   1.812       .  S
O428        C435   1.256       .  A
O428       Al436   1.853       .  S
O429        C438   1.258       .  A
O429       Al436   1.891       .  S
O430       Al436   1.911       .  S
O431        C438   1.260       .  A
O432       Al436   1.780       .  S
O433        C434   1.256       .  A
C438        C441   1.480       .  S
C439        O440   1.262       .  A
C441        C442   1.416       .  A
C441        C446   1.417       .  A
C442        C443   1.394       .  A
C442        H447   1.084       .  S
C443        C444   1.390       .  A
C443        C464   1.474       .  S
C444        C445   1.409       .  A
C444        H448   1.084       .  S
C445        C446   1.407       .  A
C445        C475   1.488       .  S
C446        H449   1.083       .  S
C450        C451   1.416       .  A
C450        C455   1.417       .  A
C451        C452   1.394       .  A
C451        H456   1.084       .  S
C452        C453   1.389       .  A
C452        C479   1.473       .  S
C453        C454   1.408       .  A
C453        H457   1.084       .  S
C454        C455   1.407       .  A
C454        C474   1.488       .  S
C455        H458   1.083       .  S
O459        C474   1.268       .  A
O459       Al627   1.948   1_545  S
C460        O790   1.260       .  A
C460        O461   1.258       .  A
O461       Al463   1.892       .  S
O462        C464   1.262       .  A
O462       Al463   1.897       .  S
Al463       O631   1.911       .  S
Al463       O633   1.853       .  S
Al463       O472   1.780       .  S
C464        O477   1.262       .  A
O465        C475   1.268       .  A
O466        C479   1.262       .  A
O466       Al636   1.898   1_545  S
Al467       O619   1.948       .  S
Al467       O785   1.948       .  S
Al467       O960   1.920       .  S
Al467       O477   1.918       .  S
Al467       O472   1.812       .  S
O468        C475   1.256       .  A
O468       Al476   1.853       .  S
O469       Al636   1.891   1_545  S
O470       Al476   1.911       .  S
O471        C478   1.260       .  A
O471       Al623   1.911   1_545  S
O472       Al796   1.780       .  S
O473        C474   1.256       .  A
O473       Al623   1.853   1_545  S
Al476       O626   1.898       .  S
Al476       O629   1.891       .  S
C478        O789   1.258       .  A
C479        O480   1.262       .  A
C481        C482   1.416       .  A
C481        C806   1.417       .  A
C481        C540   1.480       .  S
C482        C563   1.394   1_554  A
C482        H487   1.084       .  S
C483        C562   1.394       .  A
C483        C804   1.389       .  A
C483        C519   1.473       .  S
C484        C485   1.408       .  A
C484        H488   1.084       .  S
C485        C566   1.407       .  A
C485        C514   1.488       .  S
C486        C565   1.407   1_554  A
C486        H489   1.083       .  S
C490        C491   1.417       .  A
C490        C815   1.416       .  A
C490        C558   1.480       .  S
C491        C572   1.407   1_554  A
C491        H496   1.083       .  S
C492        C571   1.407       .  A
C492        C493   1.409       .  A
C492        C515   1.488       .  S
C493        C814   1.390       .  A
C493        H497   1.084       .  S
C494        C575   1.394       .  A
C494        C504   1.474       .  S
C495        C574   1.394   1_554  A
C495        H498   1.084       .  S
O499        C514   1.268       .  A
O499       Al507   1.948       .  S
C500        C530   1.480       .  S
C500        O510   1.260       .  A
C500        O501   1.258       .  A
O501       Al503   1.892       .  S
O502        C504   1.262       .  A
O502       Al503   1.897       .  S
Al503       O511   1.911       .  S
Al503       O513   1.853       .  S
Al503       O512   1.780       .  S
C504        O517   1.262       .  A
O505        C515   1.268       .  A
O505       Al507   1.948       .  S
O506        C519   1.262       .  A
O506       Al516   1.898       .  S
Al507       O520   1.920       .  S
Al507       O517   1.918       .  S
Al507       O512   1.812       .  S
O508        C515   1.256       .  A
O508       Al516   1.853       .  S
O509        C518   1.258       .  A
O509       Al516   1.891       .  S
O510       Al516   1.911       .  S
O511        C518   1.260       .  A
O512       Al516   1.780       .  S
O513        C514   1.256       .  A
C518        C521   1.480       .  S
C519        O520   1.262       .  A
C521        C522   1.416       .  A
C521        C526   1.417       .  A
C522        C523   1.394       .  A
C522        H527   1.084       .  S
C523        C524   1.390       .  A
C523        C544   1.474       .  S
C524        C525   1.409       .  A
C524        H528   1.084       .  S
C525        C526   1.407       .  A
C525        C555   1.488       .  S
C526        H529   1.083       .  S
C530        C531   1.416       .  A
C530        C535   1.417       .  A
C531        C532   1.394       .  A
C531        H536   1.084       .  S
C532        C533   1.389       .  A
C532        C559   1.473       .  S
C533        C534   1.408       .  A
C533        H537   1.084       .  S
C534        C535   1.407       .  A
C534        C554   1.488       .  S
C535        H538   1.083       .  S
O539        C554   1.268       .  A
C540        O870   1.260       .  A
C540        O541   1.258       .  A
O541       Al543   1.892       .  S
O542        C544   1.262       .  A
O542       Al543   1.897       .  S
Al543       O552   1.780       .  S
C544        O557   1.262       .  A
O545        C555   1.268       .  A
O546        C559   1.262       .  A
Al547       O865   1.948       .  S
Al547       O720   1.920   1_565  S
Al547       O557   1.918       .  S
Al547       O552   1.812       .  S
O548        C555   1.256       .  A
O548       Al556   1.853       .  S
O550       Al556   1.911       .  S
O551        C558   1.260       .  A
O552       Al876   1.780       .  S
O553        C554   1.256       .  A
C558        O869   1.258       .  A
C559        O560   1.262       .  A
C561        C562   1.416       .  A
C561        C886   1.417       .  A
C561        C620   1.480       .  S
C562        H567   1.084       .  S
C563        C884   1.389       .  A
C563        C599   1.473       .  S
C564        C565   1.408       .  A
C564        H568   1.084       .  S
C565        C594   1.488       .  S
C566        H569   1.083       .  S
C570        C571   1.417       .  A
C570        C895   1.416       .  A
C570        C638   1.480       .  S
C571        H576   1.083       .  S
C572        C573   1.409       .  A
C572        C595   1.488       .  S
C573        C894   1.390       .  A
C573        H577   1.084       .  S
C574        C584   1.474       .  S
C575        H578   1.084       .  S
O579        C594   1.268       .  A
O579       Al587   1.948       .  S
C580        C610   1.480       .  S
C580        O590   1.260       .  A
C580        O581   1.258       .  A
O581       Al583   1.892       .  S
O582        C584   1.262       .  A
O582       Al583   1.897       .  S
Al583       O591   1.911       .  S
Al583       O593   1.853       .  S
Al583       O592   1.780       .  S
C584        O597   1.262       .  A
O585        C595   1.268       .  A
O585       Al587   1.948       .  S
O586        C599   1.262       .  A
O586       Al596   1.898       .  S
Al587       O600   1.920       .  S
Al587       O597   1.918       .  S
Al587       O592   1.812       .  S
O588        C595   1.256       .  A
O588       Al596   1.853       .  S
O589        C598   1.258       .  A
O589       Al596   1.891       .  S
O590       Al596   1.911       .  S
O591        C598   1.260       .  A
O592       Al596   1.780       .  S
O593        C594   1.256       .  A
C598        C601   1.480       .  S
C599        O600   1.262       .  A
C601        C602   1.416       .  A
C601        C606   1.417       .  A
C602        C603   1.394       .  A
C602        H607   1.084       .  S
C603        C604   1.390       .  A
C603        C624   1.474       .  S
C604        C605   1.409       .  A
C604        H608   1.084       .  S
C605        C606   1.407       .  A
C605        C635   1.488       .  S
C606        H609   1.083       .  S
C610        C611   1.416       .  A
C610        C615   1.417       .  A
C611        C612   1.394       .  A
C611        H616   1.084       .  S
C612        C613   1.389       .  A
C612        C639   1.473       .  S
C613        C614   1.408       .  A
C613        H617   1.084       .  S
C614        C615   1.407       .  A
C614        C634   1.488       .  S
C615        H618   1.083       .  S
O619        C634   1.268       .  A
C620        O950   1.260       .  A
C620        O621   1.258       .  A
O621       Al623   1.892       .  S
O622        C624   1.262       .  A
O622       Al623   1.897       .  S
Al623       O632   1.780       .  S
C624        O637   1.262       .  A
O625        C635   1.268       .  A
O626        C639   1.262       .  A
Al627       O945   1.948       .  S
Al627       O800   1.920   1_565  S
Al627       O637   1.918       .  S
Al627       O632   1.812       .  S
O628        C635   1.256       .  A
O628       Al636   1.853       .  S
O630       Al636   1.911       .  S
O631        C638   1.260       .  A
O632       Al956   1.780       .  S
O633        C634   1.256       .  A
C638        O949   1.258       .  A
C639        O640   1.262       .  A
C641        C642   1.416   1_455  A
C641        C700   1.480       .  S
C642        C723   1.394   1_554  A
C642        H647   1.084       .  S
C643        C722   1.394       .  A
C643        C679   1.473       .  S
C644        C645   1.408       .  A
C644        H648   1.084       .  S
C645        C726   1.407       .  A
C645        C674   1.488       .  S
C646        C725   1.407   1_554  A
C646        H649   1.083       .  S
C650        C651   1.417       .  A
C650        C718   1.480       .  S
C651        C732   1.407   1_554  A
C651        H656   1.083       .  S
C652        C731   1.407       .  A
C652        C653   1.409       .  A
C652        C675   1.488       .  S
C653        H657   1.084   1_655  S
C654        C735   1.394       .  A
C654        C664   1.474       .  S
C655        C734   1.394   1_554  A
C655        H658   1.084       .  S
O659        C674   1.268       .  A
O659       Al667   1.948       .  S
C660        C690   1.480       .  S
C660        O670   1.260       .  A
C660        O661   1.258       .  A
O661       Al663   1.892       .  S
O662        C664   1.262       .  A
O662       Al663   1.897       .  S
Al663       O671   1.911       .  S
Al663       O673   1.853       .  S
Al663       O672   1.780       .  S
C664        O677   1.262       .  A
O665        C675   1.268       .  A
O665       Al667   1.948       .  S
O666        C679   1.262       .  A
O666       Al676   1.898       .  S
Al667       O680   1.920       .  S
Al667       O677   1.918       .  S
Al667       O672   1.812       .  S
O668        C675   1.256       .  A
O668       Al676   1.853       .  S
O669        C678   1.258       .  A
O669       Al676   1.891       .  S
O670       Al676   1.911       .  S
O671        C678   1.260       .  A
O672       Al676   1.780       .  S
O673        C674   1.256       .  A
C678        C681   1.480       .  S
C679        O680   1.262       .  A
C681        C682   1.416       .  A
C681        C686   1.417       .  A
C682        C683   1.394       .  A
C682        H687   1.084       .  S
C683        C684   1.390       .  A
C683        C704   1.474       .  S
C684        C685   1.409       .  A
C684        H688   1.084       .  S
C685        C686   1.407       .  A
C685        C715   1.488       .  S
C686        H689   1.083       .  S
C690        C691   1.416       .  A
C690        C695   1.417       .  A
C691        C692   1.394       .  A
C691        H696   1.084       .  S
C692        C693   1.389       .  A
C692        C719   1.473       .  S
C693        C694   1.408       .  A
C693        H697   1.084       .  S
C694        C695   1.407       .  A
C694        C714   1.488       .  S
C695        H698   1.083       .  S
O699        C714   1.268       .  A
O699       Al867   1.948   1_545  S
C700        O701   1.258   1_455  A
O701       Al703   1.892       .  S
O702        C704   1.262       .  A
O702       Al703   1.897       .  S
Al703       O871   1.911       .  S
Al703       O873   1.853       .  S
Al703       O712   1.780       .  S
C704        O717   1.262       .  A
O705        C715   1.268       .  A
O706        C719   1.262       .  A
O706       Al876   1.898   1_545  S
Al707       O859   1.948       .  S
Al707       O717   1.918       .  S
Al707       O712   1.812       .  S
O708        C715   1.256       .  A
O708       Al716   1.853       .  S
O709       Al876   1.891   1_545  S
O710       Al716   1.911       .  S
O711        C718   1.260       .  A
O711       Al863   1.911   1_545  S
O713        C714   1.256       .  A
O713       Al863   1.853   1_545  S
Al716       O866   1.898       .  S
Al716       O869   1.891       .  S
C719        O720   1.262       .  A
C721        C722   1.416   1_455  A
C721        C780   1.480       .  S
C722        H727   1.084       .  S
C723        C759   1.473       .  S
C724        C725   1.408       .  A
C724        H728   1.084       .  S
C725        C754   1.488       .  S
C726        H729   1.083       .  S
C730        C731   1.417       .  A
C730        C798   1.480       .  S
C731        H736   1.083       .  S
C732        C733   1.409       .  A
C732        C755   1.488       .  S
C733        H737   1.084   1_655  S
C734        C744   1.474       .  S
C735        H738   1.084       .  S
O739        C754   1.268       .  A
O739       Al747   1.948       .  S
C740        C770   1.480       .  S
C740        O750   1.260       .  A
C740        O741   1.258       .  A
O741       Al743   1.892       .  S
O742        C744   1.262       .  A
O742       Al743   1.897       .  S
Al743       O751   1.911       .  S
Al743       O753   1.853       .  S
Al743       O752   1.780       .  S
C744        O757   1.262       .  A
O745        C755   1.268       .  A
O745       Al747   1.948       .  S
O746        C759   1.262       .  A
O746       Al756   1.898       .  S
Al747       O760   1.920       .  S
Al747       O757   1.918       .  S
Al747       O752   1.812       .  S
O748        C755   1.256       .  A
O748       Al756   1.853       .  S
O749        C758   1.258       .  A
O749       Al756   1.891       .  S
O750       Al756   1.911       .  S
O751        C758   1.260       .  A
O752       Al756   1.780       .  S
O753        C754   1.256       .  A
C758        C761   1.480       .  S
C759        O760   1.262       .  A
C761        C762   1.416       .  A
C761        C766   1.417       .  A
C762        C763   1.394       .  A
C762        H767   1.084       .  S
C763        C764   1.390       .  A
C763        C784   1.474       .  S
C764        C765   1.409       .  A
C764        H768   1.084       .  S
C765        C766   1.407       .  A
C765        C795   1.488       .  S
C766        H769   1.083       .  S
C770        C771   1.416       .  A
C770        C775   1.417       .  A
C771        C772   1.394       .  A
C771        H776   1.084       .  S
C772        C773   1.389       .  A
C772        C799   1.473       .  S
C773        C774   1.408       .  A
C773        H777   1.084       .  S
C774        C775   1.407       .  A
C774        C794   1.488       .  S
C775        H778   1.083       .  S
O779        C794   1.268       .  A
O779       Al947   1.948   1_545  S
C780        O781   1.258   1_455  A
O781       Al783   1.892       .  S
O782        C784   1.262       .  A
O782       Al783   1.897       .  S
Al783       O951   1.911       .  S
Al783       O953   1.853       .  S
Al783       O792   1.780       .  S
C784        O797   1.262       .  A
O785        C795   1.268       .  A
O786        C799   1.262       .  A
O786       Al956   1.898   1_545  S
Al787       O939   1.948       .  S
Al787       O797   1.918       .  S
Al787       O792   1.812       .  S
O788        C795   1.256       .  A
O788       Al796   1.853       .  S
O789       Al956   1.891   1_545  S
O790       Al796   1.911       .  S
O791        C798   1.260       .  A
O791       Al943   1.911   1_545  S
O793        C794   1.256       .  A
O793       Al943   1.853   1_545  S
Al796       O946   1.898       .  S
Al796       O949   1.891       .  S
C799        O800   1.262       .  A
C801        C802   1.416   1_455  A
C801        C860   1.480       .  S
C802        C883   1.394   1_554  A
C802        H807   1.084       .  S
C803        C882   1.394       .  A
C803        C839   1.473       .  S
C804        C805   1.408       .  A
C804        H808   1.084       .  S
C805        C886   1.407       .  A
C805        C834   1.488       .  S
C806        C885   1.407   1_554  A
C806        H809   1.083       .  S
C810        C811   1.417       .  A
C810        C878   1.480       .  S
C811        C892   1.407   1_554  A
C811        H816   1.083       .  S
C812        C891   1.407       .  A
C812        C813   1.409       .  A
C812        C835   1.488       .  S
C813        H817   1.084   1_655  S
C814        C895   1.394       .  A
C814        C824   1.474       .  S
C815        C894   1.394   1_554  A
C815        H818   1.084       .  S
O819        C834   1.268       .  A
O819       Al827   1.948       .  S
C820        C850   1.480       .  S
C820        O830   1.260       .  A
C820        O821   1.258       .  A
O821       Al823   1.892       .  S
O822        C824   1.262       .  A
O822       Al823   1.897       .  S
Al823       O831   1.911       .  S
Al823       O833   1.853       .  S
Al823       O832   1.780       .  S
C824        O837   1.262       .  A
O825        C835   1.268       .  A
O825       Al827   1.948       .  S
O826        C839   1.262       .  A
O826       Al836   1.898       .  S
Al827       O840   1.920       .  S
Al827       O837   1.918       .  S
Al827       O832   1.812       .  S
O828        C835   1.256       .  A
O828       Al836   1.853       .  S
O829        C838   1.258       .  A
O829       Al836   1.891       .  S
O830       Al836   1.911       .  S
O831        C838   1.260       .  A
O832       Al836   1.780       .  S
O833        C834   1.256       .  A
C838        C841   1.480       .  S
C839        O840   1.262       .  A
C841        C842   1.416       .  A
C841        C846   1.417       .  A
C842        C843   1.394       .  A
C842        H847   1.084       .  S
C843        C844   1.390       .  A
C843        C864   1.474       .  S
C844        C845   1.409       .  A
C844        H848   1.084       .  S
C845        C846   1.407       .  A
C845        C875   1.488       .  S
C846        H849   1.083       .  S
C850        C851   1.416       .  A
C850        C855   1.417       .  A
C851        C852   1.394       .  A
C851        H856   1.084       .  S
C852        C853   1.389       .  A
C852        C879   1.473       .  S
C853        C854   1.408       .  A
C853        H857   1.084       .  S
C854        C855   1.407       .  A
C854        C874   1.488       .  S
C855        H858   1.083       .  S
O859        C874   1.268       .  A
C860        O861   1.258   1_455  A
O861       Al863   1.892       .  S
O862        C864   1.262       .  A
O862       Al863   1.897       .  S
Al863       O872   1.780       .  S
C864        O877   1.262       .  A
O865        C875   1.268       .  A
O866        C879   1.262       .  A
Al867       O877   1.918       .  S
Al867       O872   1.812       .  S
O868        C875   1.256       .  A
O868       Al876   1.853       .  S
O870       Al876   1.911       .  S
O871        C878   1.260       .  A
O873        C874   1.256       .  A
C879        O880   1.262       .  A
C881        C882   1.416   1_455  A
C881        C940   1.480       .  S
C882        H887   1.084       .  S
C883        C919   1.473       .  S
C884        C885   1.408       .  A
C884        H888   1.084       .  S
C885        C914   1.488       .  S
C886        H889   1.083       .  S
C890        C891   1.417       .  A
C890        C958   1.480       .  S
C891        H896   1.083       .  S
C892        C893   1.409       .  A
C892        C915   1.488       .  S
C893        H897   1.084   1_655  S
C894        C904   1.474       .  S
C895        H898   1.084       .  S
O899        C914   1.268       .  A
O899       Al907   1.948       .  S
C900        C930   1.480       .  S
C900        O910   1.260       .  A
C900        O901   1.258       .  A
O901       Al903   1.892       .  S
O902        C904   1.262       .  A
O902       Al903   1.897       .  S
Al903       O911   1.911       .  S
Al903       O913   1.853       .  S
Al903       O912   1.780       .  S
C904        O917   1.262       .  A
O905        C915   1.268       .  A
O905       Al907   1.948       .  S
O906        C919   1.262       .  A
O906       Al916   1.898       .  S
Al907       O920   1.920       .  S
Al907       O917   1.918       .  S
Al907       O912   1.812       .  S
O908        C915   1.256       .  A
O908       Al916   1.853       .  S
O909        C918   1.258       .  A
O909       Al916   1.891       .  S
O910       Al916   1.911       .  S
O911        C918   1.260       .  A
O912       Al916   1.780       .  S
O913        C914   1.256       .  A
C918        C921   1.480       .  S
C919        O920   1.262       .  A
C921        C922   1.416       .  A
C921        C926   1.417       .  A
C922        C923   1.394       .  A
C922        H927   1.084       .  S
C923        C924   1.390       .  A
C923        C944   1.474       .  S
C924        C925   1.409       .  A
C924        H928   1.084       .  S
C925        C926   1.407       .  A
C925        C955   1.488       .  S
C926        H929   1.083       .  S
C930        C931   1.416       .  A
C930        C935   1.417       .  A
C931        C932   1.394       .  A
C931        H936   1.084       .  S
C932        C933   1.389       .  A
C932        C959   1.473       .  S
C933        C934   1.408       .  A
C933        H937   1.084       .  S
C934        C935   1.407       .  A
C934        C954   1.488       .  S
C935        H938   1.083       .  S
O939        C954   1.268       .  A
C940        O941   1.258   1_455  A
O941       Al943   1.892       .  S
O942        C944   1.262       .  A
O942       Al943   1.897       .  S
Al943       O952   1.780       .  S
C944        O957   1.262       .  A
O945        C955   1.268       .  A
O946        C959   1.262       .  A
Al947       O957   1.918       .  S
Al947       O952   1.812       .  S
O948        C955   1.256       .  A
O948       Al956   1.853       .  S
O950       Al956   1.911       .  S
O951        C958   1.260       .  A
O953        C954   1.256       .  A
C959        O960   1.262       .  A
