geometry optimzed in LAMMPS
_audit_creation_date              2020-12-01 
_audit_creation_method            'lammps2cif' 
_symmetry_space_group_name_H-M    'P1' 
_symmetry_Int_Tables_number       1 
_symmetry_cell_setting            triclinic 
loop_ 
_symmetry_equiv_pos_as_xyz 
  x,y,z 
_cell_length_a                    28.36031518 
_cell_length_b                    28.218815958318494 
_cell_length_c                    27.052034581738848 
_cell_angle_alpha                 90.34426639369562 
_cell_angle_beta                  87.30724628345376 
_cell_angle_gamma                 89.99631640900967 
loop_ 
_atom_site_label 
_atom_site_type_symbol 
_atom_site_fract_x 
_atom_site_fract_y 
_atom_site_fract_z 
_atom_site_charge 
C1          C  0.56342880  0.58004836  0.19136638     0.79800
N2          N  0.53262364  0.61011781  0.21591596    -0.78500
C3          C  0.52336678  0.60557551  0.26545541     0.82200
N4          N  0.54385815  0.56989176  0.29020498    -0.78500
C5          C  0.57576094  0.54080567  0.26660116     0.82300
N6          N  0.58521788  0.54588681  0.21739037    -0.80200
C7          C  0.41296165  0.46949566  0.53285470     0.79800
N8          N  0.44011714  0.43790283  0.50604116    -0.78500
C9          C  0.44467308  0.44087398  0.45603476     0.82200
N10         N  0.42275830  0.47636893  0.43255653    -0.78500
C11         C  0.39394988  0.50693714  0.45838576     0.82300
N12         N  0.38952759  0.50375917  0.50843426    -0.80200
C13         C  0.82136325  0.57722273  0.80772069     0.79800
N14         N  0.84609884  0.54944078  0.77440603    -0.78500
C15         C  0.89354515  0.54530008  0.77577459     0.82200
N16         N  0.91676027  0.56926756  0.81058975    -0.78500
C17         C  0.89312430  0.59902129  0.84239756     0.82300
N18         N  0.84537097  0.60282118  0.84130969    -0.80200
C19         C  0.46852220  0.83927984  0.81726878     0.79800
N20         N  0.43265446  0.86213322  0.84337808    -0.78500
C21         C  0.42832316  0.91019959  0.84070595     0.82200
N22         N  0.46030361  0.93528790  0.81288695    -0.78500
C23         C  0.49504293  0.91329071  0.78571025     0.82300
N24         N  0.49920301  0.86546425  0.78805185    -0.80200
C25         C  0.16637106  0.46399829  0.89748051     0.79800
N26         N  0.14202524  0.43972697  0.86323638    -0.78500
C27         C  0.09476413  0.44601284  0.86059799     0.82200
N28         N  0.07181230  0.47643855  0.89226958    -0.78500
C29         C  0.09518535  0.49930006  0.92793105     0.82300
N30         N  0.14253105  0.49323342  0.93037541    -0.80200
C31         C  0.52083687  0.21254690  0.89841935     0.79800
N32         N  0.48778756  0.18749329  0.92594122    -0.78500
C33         C  0.48794405  0.13925100  0.92460538     0.82200
N34         N  0.52124647  0.11640664  0.89604215    -0.78500
C35         C  0.55536766  0.14062505  0.87014129     0.82300
N36         N  0.55477224  0.18887087  0.87059648    -0.80200
O37         O  0.46949458  0.54682238  0.74072975    -0.81300
O38         O  0.53929325  0.57451383  0.94937064    -0.66000
O39         O  0.51986382  0.52088623  0.82234263    -1.12600
C40         C  0.37087153  0.47892191  0.89812031     1.05600
O41         O  0.51704510  0.50594100  0.98164599    -0.79200
O42         O  0.47552398  0.43442158  0.93535635    -0.66800
Ni43       Ni  0.53272281  0.55477527  0.76308500     1.34900
C44         C  0.48416641  0.41570954  0.89316975     0.84300
O45         O  0.59477361  0.56773203  0.86530106    -0.79800
O46         O  0.59664237  0.56323063  0.78171791    -0.90000
C47         C  0.53634603  0.54632998  0.98580838     0.83900
O48         O  0.51722121  0.61735035  0.78549180    -0.68300
O49         O  0.39142369  0.48271543  0.93901260    -0.87500
C50         C  0.50816974  0.63621587  0.82755516     0.84700
C51         C  0.61661885  0.56874446  0.82279600     1.06300
H52         H  0.44735562  0.55846069  0.90263045     0.38100
O53         O  0.46718498  0.53065158  0.89981155    -1.10200
O54         O  0.47888274  0.43848464  0.85325445    -0.66800
Ni55       Ni  0.45647742  0.50164711  0.83773937     1.26300
O56         O  0.50855594  0.61310040  0.86784766    -0.67100
O57         O  0.39258634  0.48403212  0.85596292    -0.79400
C58         C  0.45023423  0.50635753  0.73652202     0.84100
O59         O  0.44794538  0.47788497  0.77264635    -0.66500
Ni60       Ni  0.45480050  0.49521650  0.95827124     1.27400
Ni61       Ni  0.53069614  0.55019563  0.88418799     1.26100
H62         H  0.53954556  0.49294522  0.82000479     0.38600
C63         C  0.50880162  0.33626748  0.40259540     0.79800
N64         N  0.47687201  0.36337795  0.42936695    -0.78500
C65         C  0.47921049  0.41130070  0.42825966     0.82200
N66         N  0.51353544  0.43251980  0.40022793    -0.78500
C67         C  0.54660382  0.40668009  0.37438767     0.82300
N68         N  0.54410900  0.35828594  0.37496356    -0.80200
C69         C  0.45661503  0.70907866  0.31842015     0.79800
N70         N  0.48848913  0.68284788  0.29042567    -0.78500
C71         C  0.48705401  0.63474557  0.29159664     0.82200
N72         N  0.45357912  0.61295418  0.32051688    -0.78500
C73         C  0.42033689  0.63827957  0.34679428     0.82300
N74         N  0.42208191  0.68652712  0.34629335    -0.80200
C75         C  0.56534776  0.97019109  0.68316265     0.79800
N76         N  0.53632176  0.93929240  0.70851435    -0.78500
C77         C  0.53034406  0.94240071  0.75858542     0.82200
N78         N  0.55218922  0.97750517  0.78320134    -0.78500
C79         C  0.58228577  0.00750398  0.75874732     0.82300
N80         N  0.58849145  0.00399662  0.70885502    -0.80200
C81         C  0.80808112  0.95583915  0.31174044     0.79800
N82         N  0.83188782  0.98609909  0.28060287    -0.78500
C83         C  0.87850469  0.99416252  0.28493231     0.82200
N84         N  0.90159043  0.97241696  0.32113386    -0.78500
C85         C  0.87877583  0.94112324  0.35159432     0.82300
N86         N  0.83194727  0.93287536  0.34707806    -0.80200
C87         C  0.41247881  0.08418577  0.02503788     0.79800
N88         N  0.44271992  0.11467082  0.00053351    -0.78500
C89         C  0.45103482  0.11072185  0.95067199     0.82200
N90         N  0.43032039  0.07500567  0.92563825    -0.78500
C91         C  0.39904855  0.04546085  0.94921544     0.82300
N92         N  0.39048942  0.05009947  0.99868249    -0.80200
C93         C  0.15349781  0.07909946  0.39835279     0.79800
N94         N  0.12924406  0.10280023  0.36388767    -0.78500
C95         C  0.08184457  0.09696082  0.36183411     0.82200
N96         N  0.05886003  0.06703916  0.39368246    -0.78500
C97         C  0.08239977  0.04444850  0.42904235     0.82300
N98         N  0.12970049  0.05021511  0.43105700    -0.80200
O99         O  0.50252028  0.04248510  0.47697062    -0.81300
O100        O  0.43935596  0.07406737  0.26693868    -0.66000
O101        O  0.45517479  0.01712096  0.39265840    -1.12600
C102        C  0.60478020  0.97479599  0.31973506     1.05600
O103        O  0.46187405  0.00653397  0.23169454    -0.79200
O104        O  0.50003107  0.93355866  0.27840426    -0.66800
Ni105      Ni  0.44035588  0.05060673  0.45229440     1.34900
C106        C  0.49356690  0.91308875  0.31966059     0.84300
O107        O  0.38187772  0.06524049  0.34876930    -0.79800
O108        O  0.37713453  0.06022576  0.43175969    -0.90000
C109        C  0.44256298  0.04704578  0.22927775     0.83900
O110        O  0.45793793  0.11305990  0.43219060    -0.68300
O111        O  0.58482749  0.97881580  0.27852914    -0.87500
C112        C  0.46940648  0.13254218  0.39121262     0.84700
C113        C  0.35829613  0.06651455  0.39023454     1.06300
H114        H  0.52971334  0.05590401  0.31517901     0.38100
O115        O  0.50970637  0.02817442  0.31687630    -1.10200
O116        O  0.49862223  0.93477859  0.36068753    -0.66800
Ni117      Ni  0.51906328  0.99842103  0.37874111     1.26300
O118        O  0.46857477  0.11015826  0.35024305    -0.67100
O119        O  0.58326827  0.98148701  0.36174031    -0.79400
C120        C  0.52377191  0.00304552  0.48047100     0.84100
O121        O  0.52657490  0.97438202  0.44403867    -0.66500
Ni122      Ni  0.52278788  0.99377225  0.25751663     1.27400
Ni123      Ni  0.44615884  0.04781692  0.33136285     1.26100
H124        H  0.43564071  0.98908117  0.39347037     0.38600
C125        C  0.03324598  0.34930258  0.79784553     0.79800
N126        N  0.00699405  0.37398562  0.76585724    -0.78500
C127        C  0.01091540  0.42190203  0.76325715     0.82200
N128        N  0.04015934  0.44493996  0.79368070    -0.78500
C129        C  0.06789749  0.42047078  0.82399272     0.82300
N130        N  0.06402310  0.37271279  0.82634277    -0.80200
C131        C  0.31586240  0.95757784  0.89867463     0.79800
N132        N  0.34678239  0.92828926  0.87291238    -0.78500
C133        C  0.39408431  0.93718143  0.87224983     0.82200
N134        N  0.41015405  0.97592068  0.89615023    -0.78500
C135        C  0.38019204  0.00444929  0.92284032     0.82300
N136        N  0.33323701  0.99509339  0.92423819    -0.80200
C137        C  0.92429008  0.05801691  0.17328599     0.79800
N138        N  0.89800508  0.02855086  0.20332916    -0.78500
C139        C  0.90357927  0.02821415  0.25283899     0.82200
N140        N  0.93519444  0.05762561  0.27259655    -0.78500
C141        C  0.95991801  0.08879038  0.24384012     0.82300
N142        N  0.95493621  0.08882132  0.19403767    -0.80200
C143        C  0.95135105  0.69458844  0.91023338     0.79800
N144        N  0.92216955  0.67186129  0.87946908    -0.78500
C145        C  0.91955670  0.62394853  0.87956374     0.82200
N146        N  0.94762792  0.59880571  0.90893360    -0.78500
C147        C  0.97593570  0.62113536  0.94072663     0.82300
N148        N  0.97818095  0.66920335  0.94103583    -0.80200
C149        C  0.66697916  0.09209642  0.81162261     0.79800
N150        N  0.63667063  0.12102299  0.83861720    -0.78500
C151        C  0.58918454  0.11335402  0.83849962     0.82200
N152        N  0.57240642  0.07607408  0.81288435    -0.78500
C153        C  0.60190710  0.04778317  0.78535777     0.82300
N154        N  0.64907574  0.05574435  0.78483243    -0.80200
C155        C  0.03962439  0.97756849  0.54048262     0.79800
N156        N  0.06477047  0.00830455  0.51061828    -0.78500
C157        C  0.05701485  0.01077156  0.46153177     0.82200
N158        N  0.02406688  0.98262849  0.44210846    -0.78500
C159        C  0.00013094  0.95063583  0.47052245     0.82300
N160        N  0.00770377  0.94813191  0.51973742    -0.80200
O161        O  0.94425077  0.92093229  0.90633355    -0.81300
O162        O  0.97912411  0.13131869  0.86382334    -0.66000
O163        O  0.95405912  0.99988296  0.84618432    -1.12600
C164        C  0.12056180  0.98862480  0.86433072     1.05600
O165        O  0.03480799  0.12397028  0.80422582    -0.79200
O166        O  0.07220667  0.04400189  0.76722672    -0.66800
Ni167      Ni  0.90367836  0.96864825  0.88093742     1.34900
C168        C  0.05170478  0.00652222  0.75376682     0.84300
O169        O  0.89851292  0.08319368  0.84873450    -0.79800
O170        O  0.85944901  0.01393567  0.85784220    -0.90000
C171        C  0.00683109  0.14960431  0.83091074     0.83900
O172        O  0.90659473  0.00105030  0.94244085    -0.68300
O173        O  0.12170002  0.03204367  0.85125181    -0.87500
C174        C  0.92881128  0.03677588  0.95791556     0.84700
C175        C  0.86085953  0.05815910  0.84838308     1.06300
H176        H  0.03477383  0.05013818  0.89990319     0.38100
O177        O  0.02759105  0.04586292  0.86558648    -1.10200
O178        O  0.02941550  0.97959752  0.78446380    -0.66800
Ni179      Ni  0.01779995  0.98001267  0.85570089     1.26300
O180        O  0.95294673  0.06385564  0.92886071    -0.67100
O181        O  0.08304744  0.96321519  0.86596777    -0.79400
C182        C  0.97319045  0.89547052  0.88063981     0.84100
O183        O  0.00290972  0.91425823  0.85008790    -0.66500
Ni184      Ni  0.07664276  0.07682219  0.82855715     1.27400
Ni185      Ni  0.96380493  0.06567233  0.85744277     1.26100
H186        H  0.94782247  0.99628972  0.81155839     0.38600
C187        C  0.30878226  0.58951357  0.40411252     0.79800
N188        N  0.32672416  0.55406229  0.43173593    -0.78500
C189        C  0.37405503  0.54734255  0.43269238     0.82200
N190        N  0.40352287  0.57573276  0.40561601    -0.78500
C191        C  0.38661290  0.61206249  0.37915809     0.82300
N192        N  0.33908816  0.61851620  0.37761767    -0.80200
C193        C  0.65926207  0.45572717  0.31964598     0.79800
N194        N  0.62847634  0.42585681  0.34440476    -0.78500
C195        C  0.58104035  0.43314286  0.34292724     0.82200
N196        N  0.56481768  0.47106642  0.31825341    -0.78500
C197        C  0.59480601  0.50017803  0.29274168     0.82300
N198        N  0.64195332  0.49235190  0.29325313    -0.80200
C199        C  0.93819529  0.84713587  0.41966447     0.79800
N200        N  0.90733194  0.86930620  0.39046368    -0.78500
C201        C  0.90545312  0.91725356  0.38911282     0.82200
N202        N  0.93504312  0.94303964  0.41642384    -0.78500
C203        C  0.96470945  0.92152329  0.44710275     0.82300
N204        N  0.96708703  0.87344143  0.44792166    -0.80200
C205        C  0.02357416  0.19173090  0.29344776     0.79800
N206        N  0.99392459  0.16575515  0.26576346    -0.78500
C207        C  0.99533278  0.11766638  0.26728048     0.82200
N208        N  0.02471357  0.09585739  0.29798580    -0.78500
C209        C  0.05491143  0.12126558  0.32482929     0.82300
N210        N  0.05412865  0.16924292  0.32280695    -0.80200
C211        C  0.93325565  0.47073439  0.66828569     0.79800
N212        N  0.96639705  0.44320887  0.68958741    -0.78500
C213        C  0.97582080  0.44986131  0.73811915     0.82200
N214        N  0.95260843  0.48385244  0.76491908    -0.78500
C215        C  0.91896989  0.51029345  0.74475673     0.82300
N216        N  0.90937212  0.50378683  0.69660050    -0.80200
C217        C  0.04835817  0.56842696  0.03755666     0.79800
N218        N  0.01633893  0.59650855  0.01544035    -0.78500
C219        C  0.01071976  0.59293873  0.96591058     0.82200
N220        N  0.03651471  0.56112498  0.93867720    -0.78500
C221        C  0.06929679  0.53398049  0.95954173     0.82300
N222        N  0.07512473  0.53739743  0.00909562    -0.80200
O223        O  0.03081584  0.42069086  0.29478269    -0.81300
O224        O  0.99762829  0.62971649  0.35433381    -0.66000
O225        O  0.02286131  0.49693063  0.36013961    -1.12600
C226        C  0.85536902  0.48661713  0.34944709     1.05600
O227        O  0.94257005  0.61923126  0.41356637    -0.79200
O228        O  0.90749549  0.53695306  0.44694395    -0.66800
Ni229      Ni  0.07207282  0.46785391  0.32063714     1.34900
C230        C  0.92822631  0.49843038  0.45636609     0.84300
O231        O  0.07819219  0.57974627  0.36429338    -0.79800
O232        O  0.11722148  0.51206616  0.34457217    -0.90000
C233        C  0.96796494  0.64661452  0.38651313     0.83900
O234        O  0.06618723  0.50345872  0.26149354    -0.68300
O235        O  0.85449729  0.52915562  0.36561010    -0.87500
C236        C  0.04458045  0.54117003  0.25085162     0.84700
C237        C  0.11593576  0.55488266  0.35995324     1.06300
H238        H  0.94042260  0.55072290  0.31373132     0.38100
O239        O  0.94851180  0.54435932  0.34723794    -1.10200
O240        O  0.94942734  0.47333437  0.42293818    -0.66800
Ni241      Ni  0.95862912  0.47791551  0.35162377     1.26300
O242        O  0.02212419  0.56653905  0.28338711    -0.67100
O243        O  0.89306418  0.46192417  0.34287259    -0.79400
C244        C  0.00323977  0.39417747  0.32063257     0.84100
O245        O  0.97339995  0.41178817  0.35208860    -0.66500
Ni246      Ni  0.90028940  0.57300589  0.38845000     1.27400
Ni247      Ni  0.01277615  0.56342270  0.35514857     1.26100
H248        H  0.03041110  0.49098892  0.39395240     0.38600
C249        C  0.04994473  0.56766458  0.09284192    -0.00600
C250        C  0.00855238  0.57790123  0.12184501    -0.12500
C251        C  0.00640018  0.57181862  0.17351149     0.01600
C252        C  0.04625568  0.55500835  0.19753103    -0.00700
C253        C  0.08825563  0.54704472  0.16885674    -0.12400
C254        C  0.09060967  0.55368740  0.11737550     0.01500
H255        H  0.97692971  0.58876973  0.10392985     0.14500
H256        H  0.11947312  0.53500354  0.18677997     0.14500
C257        C  0.13553226  0.54670367  0.09093684     0.36200
C258        C  0.96190774  0.58015734  0.20022865     0.36100
N259        N  0.17159636  0.54139057  0.06979186    -0.44200
N260        N  0.92603162  0.58702569  0.22119483    -0.44200
C261        C  0.92731180  0.46945932  0.61351939    -0.00600
C262        C  0.96411600  0.45157424  0.58190423    -0.12500
C263        C  0.96430800  0.45811095  0.53033900     0.01600
C264        C  0.92713367  0.48323429  0.50922584    -0.00700
C265        C  0.88867437  0.49762309  0.54036801    -0.12400
C266        C  0.88811014  0.49068189  0.59159331     0.01500
H267        H  0.99423368  0.43459370  0.59757477     0.14500
H268        H  0.85900753  0.51544721  0.52466156     0.14500
C269        C  0.84672146  0.50647762  0.62023127     0.36200
C270        C  0.00455217  0.44123966  0.50067667     0.36100
N271        N  0.81336540  0.51948039  0.64259825    -0.44200
N272        N  0.03685272  0.42751893  0.47705850    -0.44200
C273        C  0.00675073  0.34234324  0.31292753    -0.00600
C274        C  0.05200032  0.32254704  0.30561530    -0.12500
C275        C  0.05818279  0.27382657  0.29829778     0.01600
C276        C  0.01848679  0.24383622  0.29707247    -0.00700
C277        C  0.97305963  0.26367958  0.30325253    -0.12400
C278        C  0.96690689  0.31247243  0.31173166     0.01500
H279        H  0.08284690  0.34523647  0.30638673     0.14500
H280        H  0.94232420  0.24083665  0.30281628     0.14500
C281        C  0.91952909  0.33106105  0.31789175     0.36200
C282        C  0.10565673  0.25566244  0.29129593     0.36100
N283        N  0.88157082  0.34598455  0.32282321    -0.44200
N284        N  0.14369407  0.24109214  0.28574837    -0.44200
C285        C  0.96195419  0.69821152  0.39405380    -0.00600
C286        C  0.91573540  0.71579461  0.40086508    -0.12500
C287        C  0.90718745  0.76391172  0.41006331     0.01600
C288        C  0.94546064  0.79540952  0.41407774    -0.00700
C289        C  0.99179987  0.77772779  0.40803981    -0.12400
C290        C  0.00029003  0.72965285  0.39735535     0.01500
H291        H  0.88602888  0.69178932  0.39845715     0.14500
H292        H  0.02146643  0.80177821  0.41022525     0.14500
C293        C  0.04844428  0.71330934  0.39103522     0.36200
C294        C  0.85881060  0.77984184  0.41585943     0.36100
N295        N  0.08701134  0.70012601  0.38581771    -0.44200
N296        N  0.82004327  0.79259264  0.42027250    -0.44200
C297        C  0.71134275  0.45266846  0.32506909    -0.00600
C298        C  0.74149916  0.46816946  0.28559255    -0.12500
C299        C  0.78985021  0.47524539  0.29159094     0.01600
C300        C  0.80920321  0.46637939  0.33761390    -0.00700
C301        C  0.78000514  0.44820289  0.37625474    -0.12400
C302        C  0.73147333  0.44128505  0.37050319     0.01500
H303        H  0.72683581  0.47706149  0.25051177     0.14500
H304        H  0.79454351  0.44254735  0.41214133     0.14500
C305        C  0.70282671  0.42719247  0.41343594     0.36200
C306        C  0.81836511  0.49483726  0.25107033     0.36100
N307        N  0.68003985  0.41611893  0.44806608    -0.44200
N308        N  0.84121924  0.51059268  0.21863450    -0.44200
C309        C  0.25693021  0.59096421  0.39666666    -0.00600
C310        C  0.24115864  0.60136119  0.34934002    -0.12500
C311        C  0.19405063  0.59331561  0.33765740     0.01600
C312        C  0.16148989  0.57541743  0.37380730    -0.00700
C313        C  0.17613839  0.56847278  0.42201861    -0.12400
C314        C  0.22325958  0.57620602  0.43376621     0.01500
H315        H  0.26626893  0.61277176  0.32036933     0.14500
H316        H  0.15124353  0.55459135  0.44996611     0.14500
C317        C  0.23621863  0.56782186  0.48396476     0.36200
C318        C  0.18043512  0.60098922  0.28756954     0.36100
N319        N  0.24660330  0.56116437  0.52420499    -0.44200
N320        N  0.16939394  0.60712494  0.24746637    -0.44200
C321        C  0.04493571  0.97951621  0.59555149    -0.00600
C322        C  0.08074961  0.00833420  0.61390891    -0.12500
C323        C  0.08474881  0.01632875  0.66472296     0.01600
C324        C  0.05252160  0.99491911  0.69954333    -0.00700
C325        C  0.01826550  0.96406427  0.68153707    -0.12400
C326        C  0.01395774  0.95640955  0.63049684     0.01500
H327        H  0.10556933  0.02585713  0.58837647     0.14500
H328        H  0.99331247  0.94711318  0.70739580     0.14500
C329        C  0.97600902  0.92610151  0.61582599     0.36200
C330        C  0.12240226  0.04712375  0.67940051     0.36100
N331        N  0.94539389  0.90184913  0.60444429    -0.44200
N332        N  0.15252811  0.07199229  0.69080150    -0.44200
C333        C  0.71917965  0.09510796  0.81668241    -0.00600
C334        C  0.73697506  0.10795791  0.86264582    -0.12500
C335        C  0.78471188  0.10044284  0.87242527     0.01600
C336        C  0.81557842  0.08007095  0.83579725    -0.00700
C337        C  0.79893123  0.07125507  0.78868442    -0.12400
C338        C  0.75146860  0.07898557  0.77869001     0.01500
H339        H  0.71302727  0.12078833  0.89216595     0.14500
H340        H  0.82257605  0.05582801  0.76027985     0.14500
C341        C  0.73673842  0.06886401  0.72935227     0.36200
C342        C  0.80055401  0.11093230  0.92125425     0.36100
N343        N  0.72501223  0.06079022  0.68977413    -0.44200
N344        N  0.81327372  0.11949950  0.96034542    -0.44200
C345        C  0.95923915  0.74573369  0.90431516    -0.00600
C346        C  0.97618250  0.76242896  0.85805718    -0.12500
C347        C  0.98312923  0.81091286  0.84989532     0.01600
C348        C  0.97222649  0.84362116  0.88848231    -0.00700
C349        C  0.95605741  0.82651170  0.93507382    -0.13200
C350        C  0.94981192  0.77798570  0.94328191     0.01500
H351        H  0.98371920  0.73742763  0.82809245     0.14500
H352        H  0.94755466  0.85119156  0.96507423     0.14500
C353        C  0.93147124  0.76227579  0.99110828     0.36200
C354        C  0.99918972  0.82605699  0.80103806     0.36100
N355        N  0.91658421  0.74962542  0.02934736    -0.44200
N356        N  0.01208124  0.83825429  0.76192370    -0.44200
C357        C  0.92297812  0.05344037  0.11817893    -0.00600
C358        C  0.93924248  0.09109806  0.08790925    -0.12500
C359        C  0.94103430  0.08738075  0.03589896     0.01600
C360        C  0.92670861  0.04496076  0.01278111    -0.00700
C361        C  0.91013179  0.00762807  0.04322917    -0.12400
C362        C  0.90809737  0.01126265  0.09481488     0.01500
H363        H  0.95059254  0.12380576  0.10490365     0.14500
H364        H  0.89932333  0.97445482  0.02675899     0.14500
C365        C  0.89225601  0.96984624  0.12207067     0.36200
C366        C  0.95692106  0.12801470  0.00760385     0.36100
N367        N  0.87947621  0.93647503  0.14346956    -0.44200
N368        N  0.96954611  0.16077956  0.98512345    -0.44200
C369        C  0.26333135  0.95348828  0.89481183    -0.00600
C370        C  0.23416670  0.97766413  0.93023726    -0.12500
C371        C  0.18624911  0.98553322  0.92284431     0.01600
C372        C  0.16589835  0.96856977  0.87966064    -0.00700
C373        C  0.19334270  0.94034968  0.84653080    -0.12400
C374        C  0.24163291  0.93241972  0.85377011     0.01500
H375        H  0.24935820  0.99296557  0.96273636     0.14500
H376        H  0.17788725  0.92722635  0.81317667     0.14500
C377        C  0.26824666  0.90548210  0.81650954     0.36200
C378        C  0.15912046  0.01362728  0.95880828     0.36100
N379        N  0.28941702  0.88374432  0.78660013    -0.44200
N380        N  0.13732868  0.03614286  0.98755559    -0.44200
C381        C  0.00712355  0.20105274  0.82217838    -0.00600
C382        C  0.01018678  0.23181907  0.86263754    -0.12500
C383        C  0.01843981  0.28021400  0.85545229     0.01600
C384        C  0.02350830  0.29854290  0.80685115    -0.00700
C385        C  0.01768801  0.26809442  0.76645942    -0.12400
C386        C  0.00980273  0.21960595  0.77371953     0.01500
H387        H  0.00785773  0.21776311  0.89990544     0.14500
H388        H  0.02025117  0.28203992  0.72915303     0.14500
C389        C  0.00385601  0.18960807  0.73098349     0.36200
C390        C  0.02039612  0.31031341  0.89869457     0.36100
N391        N  0.99885799  0.16535678  0.69697380    -0.44200
N392        N  0.02185997  0.33444998  0.93332931    -0.44200
C393        C  0.20587310  0.08087929  0.39728717    -0.00600
C394        C  0.23110130  0.08540662  0.35159060    -0.12500
C395        C  0.28052882  0.08214282  0.34801829     0.01600
C396        C  0.30604094  0.07428229  0.39113804    -0.00700
C397        C  0.28049902  0.07181205  0.43704107    -0.12400
C398        C  0.23125872  0.07499805  0.44045054     0.01500
H399        H  0.21204800  0.08999599  0.31810561     0.14500
H400        H  0.29887139  0.06658324  0.47083333     0.14500
C401        C  0.20787413  0.07276308  0.48900985     0.36200
C402        C  0.30342505  0.08645138  0.29940463     0.36100
N403        N  0.18905633  0.07097811  0.52785525    -0.44200
N404        N  0.32152273  0.08998484  0.26034849    -0.44200
C405        C  0.42401148  0.06163743  0.18149231    -0.00600
C406        C  0.43701519  0.10570277  0.16146676    -0.12500
C407        C  0.43022424  0.11582881  0.11147881     0.01600
C408        C  0.41042883  0.08117513  0.08042855    -0.00700
C409        C  0.39262799  0.03930680  0.10258119    -0.12400
C410        C  0.39923791  0.02941211  0.15237825     0.01500
H411        H  0.45498714  0.13122076  0.18409100     0.14500
H412        H  0.37556572  0.01270686  0.08054522     0.14500
C413        C  0.38089873  0.98548655  0.17264524     0.36200
C414        C  0.44419271  0.16189230  0.09341271     0.36100
N415        N  0.36598998  0.95046778  0.18903228    -0.44200
N416        N  0.45496067  0.19914753  0.07935993    -0.44200
C417        C  0.65613228  0.96354775  0.31756694    -0.00600
C418        C  0.68205964  0.97182642  0.27288864    -0.12500
C419        C  0.73102073  0.96666030  0.26917135     0.01600
C420        C  0.75573770  0.95306663  0.31105149    -0.00700
C421        C  0.72961139  0.94141396  0.35481946    -0.12400
C422        C  0.68033925  0.94643162  0.35845701     0.01500
H423        H  0.66426358  0.98395767  0.24067279     0.14500
H424        H  0.74778530  0.93016084  0.38712459     0.14500
C425        C  0.65595775  0.93367302  0.40456337     0.36200
C426        C  0.75457247  0.97622484  0.22173972     0.36100
N427        N  0.63659759  0.92328053  0.44154031    -0.44200
N428        N  0.77320275  0.98417179  0.18371021    -0.44200
C429        C  0.54473751  0.99137372  0.52804628    -0.00600
C430        C  0.53776111  0.94607844  0.54817260    -0.12500
C431        C  0.54722571  0.93694188  0.59774697     0.01600
C432        C  0.56446070  0.97363186  0.62806832    -0.00700
C433        C  0.57612482  0.01738264  0.60588142    -0.12400
C434        C  0.56622373  0.02655601  0.55669094     0.01500
H435        H  0.52211909  0.91854288  0.52609412     0.14500
H436        H  0.59052529  0.04582610  0.62766932     0.14500
C437        C  0.57757073  0.07286146  0.53689861     0.36200
C438        C  0.53780325  0.88993823  0.61647293     0.36100
N439        N  0.58674702  0.10996821  0.52118961    -0.44200
N440        N  0.53017101  0.85218747  0.63129064    -0.44200
C441        C  0.46165219  0.76174341  0.31970727    -0.00600
C442        C  0.47570637  0.78475988  0.27577027    -0.12500
C443        C  0.48540145  0.83340860  0.27476633     0.01600
C444        C  0.48092530  0.86122285  0.31891101    -0.00700
C445        C  0.46628514  0.83805289  0.36304607    -0.12400
C446        C  0.45681429  0.78895695  0.36381083     0.01500
H447        H  0.47998066  0.76427445  0.24176615     0.14500
H448        H  0.46310485  0.85807937  0.39737166     0.14500
C449        C  0.44529714  0.76696083  0.41088373     0.36200
C450        C  0.50191656  0.85260447  0.22766234     0.36100
N451        N  0.43635425  0.74923494  0.44864034    -0.44200
N452        N  0.51527856  0.86772335  0.18986930    -0.44200
C453        C  0.48256707  0.18412513  0.39270833    -0.00600
C454        C  0.46759100  0.21039977  0.43485882    -0.12500
C455        C  0.47669199  0.25889018  0.43930436     0.01600
C456        C  0.50226819  0.28338937  0.40107074    -0.00700
C457        C  0.51856735  0.25700904  0.35919701    -0.12400
C458        C  0.50861980  0.20812752  0.35447780     0.01500
H459        H  0.44739162  0.19316223  0.46468055     0.14500
H460        H  0.53793571  0.27485346  0.32923314     0.14500
C461        C  0.52568365  0.18378642  0.31009780     0.36200
C462        C  0.45832815  0.28194077  0.48392233     0.36100
N463        N  0.53930146  0.16440687  0.27439381    -0.44200
N464        N  0.44252369  0.29951639  0.51971250    -0.44200
C465        C  0.49953429  0.36456704  0.89208660    -0.00600
C466        C  0.50360783  0.34119509  0.93769788    -0.12500
C467        C  0.51307289  0.29257926  0.94011844     0.01600
C468        C  0.51770270  0.26522374  0.89655555    -0.00700
C469        C  0.51713494  0.28852179  0.85074129    -0.12400
C470        C  0.50880079  0.33775016  0.84809270     0.01500
H471        H  0.49916467  0.36081124  0.97217858     0.14500
H472        H  0.52222179  0.26804140  0.81685468     0.14500
C473        C  0.51087134  0.35943717  0.79985891     0.36200
C474        C  0.52064072  0.27204430  0.98778509     0.36100
N475        N  0.51331581  0.37667876  0.76111501    -0.44200
N476        N  0.52794011  0.25596437  0.02589813    -0.44200
C477        C  0.21882416  0.46167393  0.89718888    -0.00600
C478        C  0.24086905  0.46743267  0.94214758    -0.12500
C479        C  0.29004325  0.47071538  0.94390545     0.01600
C480        C  0.31880881  0.46951439  0.89946944    -0.00700
C481        C  0.29666160  0.46158096  0.85461699    -0.12400
C482        C  0.24746190  0.45734261  0.85308493     0.01500
H483        H  0.21941131  0.46988629  0.97634889     0.14500
H484        H  0.31770990  0.45966760  0.82013970     0.14500
C485        C  0.22763282  0.45096405  0.80526886     0.36200
C486        C  0.30919412  0.47603825  0.99215084     0.36100
N487        N  0.21200498  0.44565782  0.76685936    -0.44200
N488        N  0.32430000  0.48001319  0.03096548    -0.44200
C489        C  0.47732936  0.78683872  0.82264126    -0.00600
C490        C  0.51855303  0.76756452  0.79921197    -0.12500
C491        C  0.52958052  0.71936030  0.80233134     0.01600
C492        C  0.49886547  0.68815857  0.82861087    -0.00700
C493        C  0.45857351  0.70692690  0.85374438    -0.12400
C494        C  0.44758517  0.75565184  0.85115276     0.01500
H495        H  0.54303303  0.79021890  0.77842728     0.14500
H496        H  0.43505728  0.68329587  0.87457585     0.14500
C497        C  0.40551308  0.77200025  0.87809731     0.36200
C498        C  0.57393463  0.70301637  0.77979252     0.36100
N499        N  0.37182870  0.78489675  0.89998302    -0.44200
N500        N  0.60959115  0.68984243  0.76221444    -0.44200
C501        C  0.76859005  0.57585517  0.81051104    -0.00600
C502        C  0.74316388  0.60916103  0.84043045    -0.12500
C503        C  0.69364389  0.60738378  0.84608944     0.01600
C504        C  0.66856320  0.57299438  0.81998460    -0.00700
C505        C  0.69358556  0.54006441  0.79016577    -0.12400
C506        C  0.74277356  0.54014045  0.78624856     0.01500
H507        H  0.76191641  0.63632500  0.86009421     0.14500
H508        H  0.67443196  0.51260903  0.77123336     0.14500
C509        C  0.76487153  0.50065284  0.75998714     0.36200
C510        C  0.66945487  0.64131785  0.87837321     0.36100
N511        N  0.78209227  0.46839303  0.73960984    -0.44200
N512        N  0.65010751  0.66831442  0.90454062    -0.44200
C513        C  0.41533381  0.47225026  0.58800853    -0.00600
C514        C  0.39272770  0.51052617  0.61322712    -0.12500
C515        C  0.40168475  0.52105001  0.66257139     0.01600
C516        C  0.43239273  0.49211972  0.68840305    -0.00700
C517        C  0.45138608  0.45152044  0.66535488    -0.12400
C518        C  0.44394273  0.44161520  0.61557044     0.01500
H519        H  0.36990044  0.53411699  0.59379289     0.14500
H520        H  0.47511008  0.42927971  0.68531655     0.14500
C521        C  0.46952091  0.40182880  0.59394391     0.36200
C522        C  0.37966300  0.56220135  0.68572379     0.36100
N523        N  0.49125763  0.37028565  0.57755993    -0.44200
N524        N  0.36199006  0.59512889  0.70435667    -0.44200
C525        C  0.56642145  0.57771967  0.13604033    -0.00600
C526        C  0.58351003  0.53558365  0.11337257    -0.12500
C527        C  0.57733953  0.52618343  0.06332911     0.01600
C528        C  0.55453116  0.55967350  0.03425173    -0.00700
C529        C  0.54232276  0.60389904  0.05500174    -0.12400
C530        C  0.54776917  0.61315380  0.10549523     0.01500
H531        H  0.59917142  0.50820510  0.13526261     0.14500
H532        H  0.52536686  0.63007093  0.03259243     0.14500
C533        C  0.53229274  0.65863530  0.12479741     0.36200
C534        C  0.59332710  0.48109491  0.04314300     0.36100
N535        N  0.51969500  0.69515618  0.13997929    -0.44200
N536        N  0.60610083  0.44494985  0.02710019    -0.44200
loop_ 
_geom_bond_atom_site_label_1 
_geom_bond_atom_site_label_2 
_geom_bond_distance 
_geom_bond_site_symmetry_2 
_ccdc_geom_bond_type 
C1            N2   1.365       .  A
C1            N6   1.362       .  A
C1          C525   1.496       .  S
N2            C3   1.360       .  A
C3            N4   1.358       .  A
C3           C71   1.471       .  S
N4            C5   1.356       .  A
C5            N6   1.354       .  A
C5          C197   1.467       .  S
C7            N8   1.362       .  A
C7           N12   1.364       .  A
C7          C513   1.498       .  S
N8            C9   1.356       .  A
C9           N10   1.356       .  A
C9           C65   1.464       .  S
N10          C11   1.356       .  A
C11          N12   1.357       .  A
C11         C189   1.466       .  S
C13          N14   1.361       .  A
C13          N18   1.364       .  A
C13         C501   1.496       .  S
N14          C15   1.353       .  A
C15          N16   1.352       .  A
C15         C215   1.460       .  S
N16          C17   1.353       .  A
C17          N18   1.360       .  A
C17         C145   1.459       .  S
C19          N20   1.370       .  A
C19          N24   1.368       .  A
C19         C489   1.510       .  S
N20          C21   1.365       .  A
C21          N22   1.354       .  A
C21         C133   1.471       .  S
N22          C23   1.350       .  A
C23          N24   1.357       .  A
C23          C77   1.468       .  S
C25          N26   1.363       .  A
C25          N30   1.365       .  A
C25         C477   1.489       .  S
N26          C27   1.357       .  A
C27          N28   1.354       .  A
C27         C129   1.464       .  S
N28          C29   1.356       .  A
C29          N30   1.358       .  A
C29         C221   1.469       .  S
C31          N32   1.369       .  A
C31          N36   1.366       .  A
C31         C468   1.490       .  S
N32          C33   1.362       .  A
C33          N34   1.353       .  A
C33          C89   1.476       .  S
N34          C35   1.355       .  A
C35          N36   1.362       .  A
C35         C151   1.470       .  S
O37         Ni43   1.932       .  S
O37          C58   1.273       .  A
O38         Ni61   1.915       .  S
O38          C47   1.270       .  A
O39         Ni43   1.892       .  S
O39         Ni61   1.900       .  S
O39         Ni55   1.906       .  S
O39          H62   0.966       .  S
C40         C480   1.499       .  S
C40          O57   1.279       .  A
C40          O49   1.278       .  A
O41         Ni60   1.926       .  S
O41          C47   1.271       .  A
O42         Ni60   1.904       .  S
O42          C44   1.268       .  A
Ni43         O46   1.919       .  S
Ni43         O48   1.908       .  S
C44         C465   1.507       .  S
C44          O54   1.275       .  A
O45         Ni61   1.930       .  S
O45          C51   1.281       .  A
O46          C51   1.280       .  A
C47         C528   1.477   1_556  S
O48          C50   1.269       .  A
O49         Ni60   1.927       .  S
C50         C492   1.489       .  S
C50          O56   1.274       .  A
C51         C504   1.476       .  S
H52          O53   0.966       .  S
O53         Ni61   1.913       .  S
O53         Ni55   1.901       .  S
O53         Ni60   1.895       .  S
O54         Ni55   1.947       .  S
Ni55         O59   1.907       .  S
Ni55         O57   1.922       .  S
O56         Ni61   1.943       .  S
C58         C516   1.472       .  S
C58          O59   1.268       .  A
C63          N64   1.364       .  A
C63          N68   1.372       .  A
C63         C456   1.504       .  S
N64          C65   1.354       .  A
C65          N66   1.348       .  A
N66          C67   1.354       .  A
C67          N68   1.368       .  A
C67         C195   1.472       .  S
C69          N70   1.367       .  A
C69          N74   1.367       .  A
C69         C441   1.493       .  S
N70          C71   1.359       .  A
C71          N72   1.352       .  A
N72          C73   1.355       .  A
C73          N74   1.363       .  A
C73         C191   1.469       .  S
C75          N76   1.365       .  A
C75          N80   1.363   1_565  A
C75         C432   1.496       .  S
N76          C77   1.359       .  A
C77          N78   1.356       .  A
N78          C79   1.355   1_565  A
C79          N80   1.356       .  A
C79         C153   1.465       .  S
C81          N82   1.360       .  A
C81          N86   1.364       .  A
C81         C420   1.488       .  S
N82          C83   1.352       .  A
C83          N84   1.353       .  A
C83         C139   1.461   1_565  S
N84          C85   1.355       .  A
C85          N86   1.359       .  A
C85         C201   1.462       .  S
C87          N88   1.367       .  A
C87          N92   1.362   1_554  A
C87         C408   1.500       .  S
N88          C89   1.362   1_554  A
C89          N90   1.360       .  A
N90          C91   1.357       .  A
C91          N92   1.354       .  A
C91         C135   1.470       .  S
C93          N94   1.363       .  A
C93          N98   1.362       .  A
C93         C393   1.485       .  S
N94          C95   1.358       .  A
C95          N96   1.355       .  A
C95         C209   1.461       .  S
N96          C97   1.354       .  A
C97          N98   1.355       .  A
C97         C157   1.464       .  S
O99        Ni105   1.928       .  S
O99         C120   1.272       .  A
O100       Ni123   1.916       .  S
O100        C109   1.269       .  A
O101       Ni105   1.895       .  S
O101       Ni123   1.903       .  S
O101       Ni117   1.907   1_545  S
O101        H124   0.966   1_545  S
C102        C417   1.489       .  S
C102        O119   1.277       .  A
C102        O111   1.279       .  A
O103       Ni122   1.928   1_545  S
O103        C109   1.271       .  A
O104       Ni122   1.897       .  S
O104        C106   1.265       .  A
Ni105       O108   1.922       .  S
Ni105       O110   1.907       .  S
C106        C444   1.507       .  S
C106        O116   1.278       .  A
O107       Ni123   1.924       .  S
O107        C113   1.279       .  A
O108        C113   1.280       .  A
C109        C405   1.479       .  S
O110        C112   1.269       .  A
O111       Ni122   1.922       .  S
C112        C453   1.504       .  S
C112        O118   1.274       .  A
C113        C396   1.497       .  S
H114        O115   0.967       .  S
O115       Ni123   1.908       .  S
O115       Ni117   1.907   1_545  S
O115       Ni122   1.893   1_545  S
O116       Ni117   1.953       .  S
Ni117       O121   1.917       .  S
Ni117       O119   1.917       .  S
O118       Ni123   1.944       .  S
C120        C429   1.482   1_545  S
C120        O121   1.271   1_545  A
C125        N126   1.362       .  A
C125        N130   1.360       .  A
C125        C384   1.478       .  S
N126        C127   1.359       .  A
C127        N128   1.359       .  A
C127        C213   1.465   1_455  S
N128        C129   1.355       .  A
C129        N130   1.354       .  A
C131        N132   1.369       .  A
C131        N136   1.366       .  A
C131        C369   1.503       .  S
N132        C133   1.364       .  A
C133        N134   1.356       .  A
N134        C135   1.352   1_565  A
C135        N136   1.356   1_545  A
C137        N138   1.363       .  A
C137        N142   1.366       .  A
C137        C357   1.498       .  S
N138        C139   1.356       .  A
C139        N140   1.348       .  A
N140        C141   1.352       .  A
C141        N142   1.361       .  A
C141        C207   1.459       .  S
C143        N144   1.359       .  A
C143        N148   1.361       .  A
C143        C345   1.469       .  S
N144        C145   1.354       .  A
C145        N146   1.354       .  A
N146        C147   1.356       .  A
C147        N148   1.358       .  A
C147        C219   1.463   1_655  S
C149        N150   1.368       .  A
C149        N154   1.364       .  A
C149        C333   1.496       .  S
N150        C151   1.364       .  A
C151        N152   1.355       .  A
N152        C153   1.351       .  A
C153        N154   1.356       .  A
C155        N156   1.367   1_565  A
C155        N160   1.366       .  A
C155        C321   1.505       .  S
N156        C157   1.358       .  A
C157        N158   1.349   1_545  A
N158        C159   1.351       .  A
C159        N160   1.361       .  A
C159        C203   1.463   1_455  S
O161       Ni167   1.922       .  S
O161        C182   1.270       .  A
O162       Ni185   1.911       .  S
O162        C171   1.271   1_655  A
O163       Ni167   1.894       .  S
O163       Ni185   1.902   1_565  S
O163       Ni179   1.922   1_655  S
O163        H186   0.966       .  S
C164        C372   1.483       .  S
C164        O181   1.282       .  A
C164        O173   1.277   1_565  A
O165       Ni184   1.922       .  S
O165        C171   1.270       .  A
O166       Ni184   1.905       .  S
O166        C168   1.267       .  A
Ni167       O170   1.918   1_565  S
Ni167       O172   1.899   1_565  S
C168        C324   1.500   1_545  S
C168        O178   1.275   1_545  A
O169       Ni185   1.942       .  S
O169        C175   1.281       .  A
O170        C175   1.276       .  A
C171        C381   1.472       .  S
O172        C174   1.268       .  A
O173       Ni184   1.921       .  S
C174        C360   1.499   1_556  S
C174        O180   1.276       .  A
C175        C336   1.480       .  S
H176        O177   0.967       .  S
O177       Ni185   1.916   1_455  S
O177       Ni179   1.898   1_545  S
O177       Ni184   1.893       .  S
O178       Ni179   1.940       .  S
Ni179       O183   1.910       .  S
Ni179       O181   1.943       .  S
O180       Ni185   1.943       .  S
C182        C348   1.480       .  S
C182        O183   1.271   1_655  A
C187        N188   1.365       .  A
C187        N192   1.368       .  A
C187        C309   1.494       .  S
N188        C189   1.357       .  A
C189        N190   1.351       .  A
N190        C191   1.354       .  A
C191        N192   1.363       .  A
C193        N194   1.369       .  A
C193        N198   1.364       .  A
C193        C297   1.494       .  S
N194        C195   1.363       .  A
C195        N196   1.356       .  A
N196        C197   1.351       .  A
C197        N198   1.356       .  A
C199        N200   1.361       .  A
C199        N204   1.363       .  A
C199        C288   1.480       .  S
N200        C201   1.355       .  A
C201        N202   1.353       .  A
N202        C203   1.355       .  A
C203        N204   1.359       .  A
C205        N206   1.363   1_455  A
C205        N210   1.362       .  A
C205        C276   1.480       .  S
N206        C207   1.359       .  A
C207        N208   1.354   1_655  A
N208        C209   1.352       .  A
C209        N210   1.356       .  A
C211        N212   1.369       .  A
C211        N216   1.363       .  A
C211        C261   1.499       .  S
N212        C213   1.364       .  A
C213        N214   1.351       .  A
N214        C215   1.348       .  A
C215        N216   1.355       .  A
C217        N218   1.366       .  A
C217        N222   1.368       .  A
C217        C249   1.499       .  S
N218        C219   1.360   1_554  A
C219        N220   1.351       .  A
N220        C221   1.351       .  A
C221        N222   1.361   1_556  A
O223       Ni229   1.922       .  S
O223        C244   1.271       .  A
O224       Ni247   1.920   1_655  S
O224        C233   1.272       .  A
O225       Ni229   1.901       .  S
O225       Ni247   1.905       .  S
O225       Ni241   1.923   1_455  S
O225        H248   0.965       .  S
C226        C300   1.477       .  S
C226        O243   1.281       .  A
C226        O235   1.275       .  A
O227       Ni246   1.915       .  S
O227        C233   1.268       .  A
O228       Ni246   1.905       .  S
O228        C230   1.269       .  A
Ni229       O232   1.919       .  S
Ni229       O234   1.908       .  S
C230        C264   1.494       .  S
C230        O240   1.274       .  A
O231       Ni247   1.938       .  S
O231        C237   1.280       .  A
O232        C237   1.275       .  A
C233        C285   1.478       .  S
O234        C236   1.269       .  A
O235       Ni246   1.915       .  S
C236        C252   1.495       .  S
C236        O242   1.278       .  A
C237        C312   1.479       .  S
H238        O239   0.963       .  S
O239       Ni247   1.922   1_655  S
O239       Ni241   1.902       .  S
O239       Ni246   1.901       .  S
O240       Ni241   1.940       .  S
Ni241       O245   1.913       .  S
Ni241       O243   1.938       .  S
O242       Ni247   1.949       .  S
C244        C273   1.479       .  S
C244        O245   1.271   1_455  A
C249        C250   1.410       .  A
C249        C254   1.415       .  A
C250        C251   1.408       .  A
C250        H255   1.084   1_455  S
C251        C252   1.413       .  A
C251        C258   1.443   1_455  S
C252        C253   1.408       .  A
C253        C254   1.405       .  A
C253        H256   1.085       .  S
C254        C257   1.444       .  S
C257        N259   1.157       .  T
C258        N260   1.157       .  T
C261        C262   1.409       .  A
C261        C266   1.419       .  A
C262        C263   1.408       .  A
C262        H267   1.084       .  S
C263        C264   1.415       .  A
C263        C270   1.443   1_655  S
C264        C265   1.405       .  A
C265        C266   1.400       .  A
C265        H268   1.085       .  S
C266        C269   1.445       .  S
C269        N271   1.157       .  T
C270        N272   1.157       .  T
C273        C274   1.405       .  A
C273        C278   1.411   1_455  A
C274        C275   1.398       .  A
C274        H279   1.085       .  S
C275        C276   1.410       .  A
C275        C282   1.444       .  S
C276        C277   1.407   1_455  A
C277        C278   1.404       .  A
C277        H280   1.085       .  S
C278        C281   1.444       .  S
C281        N283   1.157       .  T
C282        N284   1.157       .  T
C285        C286   1.405       .  A
C285        C290   1.409   1_655  A
C286        C287   1.398       .  A
C286        H291   1.085       .  S
C287        C288   1.411       .  A
C287        C294   1.445       .  S
C288        C289   1.408       .  A
C289        C290   1.404   1_655  A
C289        H292   1.085   1_655  S
C290        C293   1.444       .  S
C293        N295   1.157       .  T
C294        N296   1.157       .  T
C297        C298   1.408       .  A
C297        C302   1.418       .  A
C298        C299   1.403       .  A
C298        H303   1.085       .  S
C299        C300   1.408       .  A
C299        C306   1.444       .  S
C300        C301   1.402       .  A
C301        C302   1.406       .  A
C301        H304   1.085       .  S
C302        C305   1.444       .  S
C305        N307   1.157       .  T
C306        N308   1.157       .  T
C309        C310   1.408       .  A
C309        C314   1.417       .  A
C310        C311   1.405       .  A
C310        H315   1.084       .  S
C311        C312   1.409       .  A
C311        C318   1.444       .  S
C312        C313   1.402       .  A
C313        C314   1.405       .  A
C313        H316   1.085       .  S
C314        C317   1.444       .  S
C317        N319   1.157       .  T
C318        N320   1.157       .  T
C321        C322   1.408   1_565  A
C321        C326   1.421       .  A
C322        C323   1.402       .  A
C322        H327   1.084       .  S
C323        C324   1.419   1_545  A
C323        C330   1.445       .  S
C324        C325   1.407       .  A
C325        C326   1.407       .  A
C325        H328   1.085   1_455  S
C326        C329   1.443   1_455  S
C329        N331   1.157       .  T
C330        N332   1.157       .  T
C333        C334   1.409       .  A
C333        C338   1.417       .  A
C334        C335   1.408       .  A
C334        H339   1.084       .  S
C335        C336   1.411       .  A
C335        C342   1.444       .  S
C336        C337   1.401       .  A
C337        C338   1.403       .  A
C337        H340   1.085       .  S
C338        C341   1.444       .  S
C341        N343   1.157       .  T
C342        N344   1.157       .  T
C345        C346   1.403       .  A
C345        C350   1.405       .  A
C346        C347   1.400       .  A
C346        H351   1.085       .  S
C347        C348   1.413       .  A
C347        C354   1.445       .  S
C348        C349   1.409       .  A
C349        C350   1.398       .  A
C349        H352   1.085       .  S
C350        C353   1.444       .  S
C353        N355   1.157   1_556  T
C354        N356   1.157   1_655  T
C357        C358   1.410       .  A
C357        C362   1.418       .  A
C358        C359   1.409       .  A
C358        H363   1.084       .  S
C359        C360   1.416       .  A
C359        C366   1.443       .  S
C360        C361   1.408       .  A
C361        C362   1.397       .  A
C361        H364   1.085   1_545  S
C362        C365   1.446   1_545  S
C365        N367   1.158       .  T
C366        N368   1.157   1_554  T
C369        C370   1.409       .  A
C369        C374   1.422       .  A
C370        C371   1.401       .  A
C370        H375   1.084       .  S
C371        C372   1.408       .  A
C371        C378   1.445   1_565  S
C372        C373   1.403       .  A
C373        C374   1.411       .  A
C373        H376   1.085       .  S
C374        C377   1.443       .  S
C377        N379   1.157       .  T
C378        N380   1.157       .  T
C381        C382   1.399       .  A
C381        C386   1.413       .  A
C382        C383   1.399       .  A
C382        H387   1.085       .  S
C383        C384   1.417       .  A
C383        C390   1.445       .  S
C384        C385   1.402       .  A
C385        C386   1.400       .  A
C385        H388   1.085       .  S
C386        C389   1.445       .  S
C389        N391   1.157   1_455  T
C390        N392   1.157       .  T
C393        C394   1.405       .  A
C393        C398   1.411       .  A
C394        C395   1.404       .  A
C394        H399   1.085       .  S
C395        C396   1.420       .  A
C395        C402   1.445       .  S
C396        C397   1.410       .  A
C397        C398   1.398       .  A
C397        H400   1.084       .  S
C398        C401   1.445       .  S
C401        N403   1.157       .  T
C402        N404   1.158       .  T
C405        C406   1.402       .  A
C405        C410   1.409       .  A
C406        C407   1.406       .  A
C406        H411   1.085       .  S
C407        C408   1.418       .  A
C407        C414   1.440       .  S
C408        C409   1.411       .  A
C409        C410   1.399       .  A
C409        H412   1.084       .  S
C410        C413   1.445   1_545  S
C413        N415   1.157       .  T
C414        N416   1.156       .  T
C417        C418   1.406       .  A
C417        C422   1.416       .  A
C418        C419   1.395       .  A
C418        H423   1.085       .  S
C419        C420   1.415       .  A
C419        C426   1.445       .  S
C420        C421   1.408       .  A
C421        C422   1.403       .  A
C421        H424   1.084       .  S
C422        C425   1.445       .  S
C425        N427   1.158       .  T
C426        N428   1.157       .  T
C429        C430   1.403       .  A
C429        C434   1.412   1_565  A
C430        C431   1.405       .  A
C430        H435   1.085       .  S
C431        C432   1.418       .  A
C431        C438   1.443       .  S
C432        C433   1.409   1_565  A
C433        C434   1.399       .  A
C433        H436   1.084       .  S
C434        C437   1.446       .  S
C437        N439   1.157       .  T
C438        N440   1.157       .  T
C441        C442   1.399       .  A
C441        C446   1.416       .  A
C442        C443   1.400       .  A
C442        H447   1.085       .  S
C443        C444   1.426       .  A
C443        C450   1.445       .  S
C444        C445   1.410       .  A
C445        C446   1.411       .  A
C445        H448   1.084       .  S
C446        C449   1.444       .  S
C449        N451   1.157       .  T
C450        N452   1.157       .  T
C453        C454   1.405       .  A
C453        C458   1.418       .  A
C454        C455   1.398       .  A
C454        H459   1.085       .  S
C455        C456   1.418       .  A
C455        C462   1.443       .  S
C456        C457   1.411       .  A
C457        C458   1.414       .  A
C457        H460   1.084       .  S
C458        C461   1.443       .  S
C461        N463   1.157       .  T
C462        N464   1.157       .  T
C465        C466   1.412       .  A
C465        C470   1.421       .  A
C466        C467   1.400       .  A
C466        H471   1.084       .  S
C467        C468   1.406       .  A
C467        C474   1.442       .  S
C468        C469   1.407       .  A
C469        C470   1.412       .  A
C469        H472   1.085       .  S
C470        C473   1.443       .  S
C473        N475   1.157       .  T
C474        N476   1.156   1_556  T
C477        C478   1.402       .  A
C477        C482   1.416       .  A
C478        C479   1.401       .  A
C478        H483   1.085       .  S
C479        C480   1.421       .  A
C479        C486   1.444       .  S
C480        C481   1.409       .  A
C481        C482   1.403       .  A
C481        H484   1.085       .  S
C482        C485   1.445       .  S
C485        N487   1.158       .  T
C486        N488   1.157   1_556  T
C489        C490   1.411       .  A
C489        C494   1.424       .  A
C490        C491   1.400       .  A
C490        H495   1.084       .  S
C491        C492   1.410       .  A
C491        C498   1.446       .  S
C492        C493   1.404       .  A
C493        C494   1.413       .  A
C493        H496   1.085       .  S
C494        C497   1.443       .  S
C497        N499   1.157       .  T
C498        N500   1.157       .  T
C501        C502   1.412       .  A
C501        C506   1.421       .  A
C502        C503   1.406       .  A
C502        H507   1.084       .  S
C503        C504   1.409       .  A
C503        C510   1.444       .  S
C504        C505   1.398       .  A
C505        C506   1.394       .  A
C505        H508   1.086       .  S
C506        C509   1.445       .  S
C509        N511   1.157       .  T
C510        N512   1.157       .  T
C513        C514   1.412       .  A
C513        C518   1.423       .  A
C514        C515   1.401       .  A
C514        H519   1.084       .  S
C515        C516   1.406       .  A
C515        C522   1.444       .  S
C516        C517   1.397       .  A
C517        C518   1.400       .  A
C517        H520   1.085       .  S
C518        C521   1.443       .  S
C521        N523   1.157       .  T
C522        N524   1.157       .  T
C525        C526   1.410       .  A
C525        C530   1.419       .  A
C526        C527   1.397       .  A
C526        H531   1.084       .  S
C527        C528   1.410       .  A
C527        C534   1.446       .  S
C528        C529   1.402       .  A
C529        C530   1.405       .  A
C529        H532   1.085       .  S
C530        C533   1.443       .  S
C533        N535   1.157       .  T
C534        N536   1.157       .  T
