geometry optimzed in LAMMPS
_audit_creation_date              2020-11-30 
_audit_creation_method            'lammps2cif' 
_symmetry_space_group_name_H-M    'P1' 
_symmetry_Int_Tables_number       1 
_symmetry_cell_setting            triclinic 
loop_ 
_symmetry_equiv_pos_as_xyz 
  x,y,z 
_cell_length_a                    67.83495447 
_cell_length_b                    34.349353952846585 
_cell_length_c                    36.95567819976019 
_cell_angle_alpha                 88.43273310280301 
_cell_angle_beta                  88.99283980654705 
_cell_angle_gamma                 91.03479601095268 
loop_ 
_atom_site_label 
_atom_site_type_symbol 
_atom_site_fract_x 
_atom_site_fract_y 
_atom_site_fract_z 
_atom_site_charge 
C1          C  0.17898965  0.14319428  0.27412106     0.86100
C2          C  0.16736736  0.15894699  0.24157863    -0.54200
C3          C  0.16327733  0.19782831  0.24276477     0.09000
C4          C  0.17115560  0.21735191  0.27685171     0.19900
C5          C  0.19735803  0.17008816  0.27486180    -0.54900
C6          C  0.19330997  0.20880577  0.27579264     0.09100
C7          C  0.16672550  0.15411288  0.30746822    -0.54400
C8          C  0.16242329  0.19275741  0.30902833     0.09700
H9          H  0.16342969  0.14097922  0.21900137     0.14200
H10         H  0.16775446  0.24872420  0.27817934    -0.00100
H11         H  0.21241443  0.16044898  0.27370092     0.14500
H12         H  0.16178126  0.13275533  0.32802426     0.14300
C13         C  0.80682241  0.11104544  0.25562131     0.86100
C14         C  0.81837988  0.12633289  0.22185593    -0.54200
C15         C  0.81974742  0.16608327  0.21849411     0.09000
C16         C  0.80901615  0.18699950  0.24919192     0.19900
C17         C  0.81692506  0.13083791  0.28735404    -0.54900
C18         C  0.81831071  0.17064026  0.28412127     0.09100
C19         C  0.78666737  0.13082256  0.25300171    -0.54400
C20         C  0.78780371  0.17038723  0.24960673     0.09700
H21         H  0.82509719  0.10710575  0.20252765     0.14200
H22         H  0.80963643  0.21916219  0.24618961    -0.00100
H23         H  0.82320644  0.11419145  0.30954918     0.14500
H24         H  0.77249284  0.11597365  0.25417755     0.14300
In25       In  0.88942005  0.31914151  0.99686304     1.36900
C26         C  0.86919063  0.29113662  0.05440251     0.77200
O27         O  0.88807533  0.37718545  0.02314081    -0.61300
O28         O  0.88312925  0.37524607  0.46679655    -0.52200
C29         C  0.92884146  0.31276002  0.49549182     0.69800
O30         O  0.91896123  0.31848840  0.02384381    -0.47000
C31         C  0.87204411  0.27574633  0.44715097     0.74500
O32         O  0.88545076  0.27765110  0.04396633    -0.58900
O33         O  0.87543808  0.31173882  0.44226712    -0.49000
O34         O  0.86311073  0.31922630  0.03508960    -0.55300
C35         C  0.88446326  0.39594033  0.99434891     0.84700
O36         O  0.91855141  0.30985957  0.46767706    -0.57200
O37         O  0.87774030  0.26216282  0.47708879    -0.60500
In38       In  0.08458198  0.32640118  0.52414926     1.36900
C39         C  0.10548844  0.30187945  0.46740097     0.77200
O40         O  0.08548733  0.38698561  0.49900401    -0.61300
O41         O  0.08547097  0.38089393  0.05621525    -0.52200
C42         C  0.04524617  0.31703484  0.02489392     0.69800
O43         O  0.05550052  0.31812893  0.49609104    -0.47000
C44         C  0.10285921  0.28609561  0.07629973     0.74500
O45         O  0.09036581  0.28389958  0.47990425    -0.58900
O46         O  0.10758437  0.32067408  0.06720394    -0.49000
O47         O  0.10970792  0.33261734  0.48369034    -0.55300
C48         C  0.08582854  0.40377085  0.52893495     0.84700
O49         O  0.05517162  0.31994688  0.05320041    -0.57200
O50         O  0.08883660  0.27209745  0.05855879    -0.60500
C51         C  0.17367517  0.90793376  0.26415541     0.86100
C52         C  0.16477470  0.89280605  0.22920464    -0.54200
C53         C  0.16399651  0.85322945  0.22741866     0.09000
C54         C  0.17239669  0.83197731  0.26077918     0.19900
C55         C  0.16171769  0.88740103  0.29499125    -0.54900
C56         C  0.16074513  0.84769465  0.29334777     0.09100
C57         C  0.19408220  0.88898037  0.26576573    -0.54400
C58         C  0.19343903  0.84928101  0.26392763     0.09700
H59         H  0.15934018  0.91185422  0.20779487     0.14200
H60         H  0.17187981  0.79984017  0.25850358    -0.00100
H61         H  0.15488216  0.90341095  0.31664704     0.14500
H62         H  0.20796486  0.90461255  0.26809017     0.14300
C63         C  0.79457095  0.87613255  0.26112628     0.86100
C64         C  0.80676439  0.86634134  0.22742824    -0.54200
C65         C  0.81013908  0.82762642  0.22368909     0.09000
C66         C  0.80109074  0.80179475  0.25468641     0.19900
C67         C  0.77564615  0.85077653  0.25832320    -0.54900
C68         C  0.77897890  0.81191097  0.25467923     0.09100
C69         C  0.80563013  0.85773285  0.29291775    -0.54400
C70         C  0.80936114  0.81894270  0.28974053     0.09700
H71         H  0.81215850  0.88848050  0.20796969     0.14200
H72         H  0.80391356  0.77037671  0.25146354    -0.00100
H73         H  0.76081051  0.86167797  0.25922453     0.14500
H74         H  0.81013143  0.87438747  0.31601359     0.14300
In75       In  0.89106125  0.70173087  0.00952617     1.36900
C76         C  0.87423969  0.73657055  0.45295819     0.77200
O77         O  0.88985956  0.64564881  0.54225277    -0.61300
O78         O  0.88248767  0.64423784  0.98683317    -0.52200
C79         C  0.93012572  0.71081955  0.00147918     0.69800
O80         O  0.92000721  0.68681874  0.48428348    -0.47000
C81         C  0.87233015  0.72702030  0.06811824     0.74500
O82         O  0.88759483  0.75276892  0.47104959    -0.58900
O83         O  0.88688997  0.70495800  0.06973991    -0.49000
O84         O  0.86949084  0.70250249  0.46402406    -0.55300
C85         C  0.88478715  0.62526942  0.51610226     0.84700
O86         O  0.92013712  0.73185107  0.02202209    -0.57200
O87         O  0.86755715  0.73686417  0.03643329    -0.60500
In88       In  0.08584534  0.71290152  0.01924390     1.36900
C89         C  0.10439522  0.74000850  0.07708815     0.77200
O90         O  0.09102704  0.65906328  0.98730767    -0.61300
O91         O  0.08901431  0.65269840  0.54428891    -0.52200
C92         C  0.04688635  0.72251034  0.52007617     0.69800
O93         O  0.05844597  0.74431064  0.03692861    -0.47000
C94         C  0.10017702  0.75246150  0.46150134     0.74500
O95         O  0.11030980  0.74724841  0.04506308    -0.58900
O96         O  0.08447536  0.76180021  0.47767604    -0.49000
O97         O  0.08934764  0.71800451  0.07947879    -0.55300
C98         C  0.09083794  0.63611463  0.01443978     0.84700
O99         O  0.05531955  0.69636068  0.50272985    -0.57200
O100        O  0.10864505  0.72340021  0.47540759    -0.60500
C101        C  0.30904984  0.40048541  0.25043977     0.86100
C102        C  0.32130692  0.38644524  0.21822842    -0.54200
C103        C  0.32350568  0.34701673  0.21746143     0.09000
C104        C  0.31254293  0.32490923  0.24890239     0.19900
C105        C  0.28925958  0.37811859  0.24785017    -0.54900
C106        C  0.29106776  0.33860803  0.24722704     0.09100
C107        C  0.31875889  0.38262061  0.28398303    -0.54400
C108        C  0.32058956  0.34315792  0.28344126     0.09700
H109        H  0.32779456  0.40636628  0.19783584     0.14200
H110        H  0.31414174  0.29283818  0.24851915    -0.00100
H111        H  0.27496955  0.39142471  0.24616786     0.14500
H112        H  0.32339750  0.39989130  0.30661400     0.14300
C113        C  0.68369810  0.38649225  0.24297616     0.86100
C114        C  0.67028591  0.36902334  0.27335973    -0.54200
C115        C  0.66839196  0.32924923  0.27342612     0.09000
C116        C  0.68007327  0.31062995  0.24235943     0.19900
C117        C  0.70329500  0.36502539  0.24741597    -0.54900
C118        C  0.70143271  0.32533254  0.24744088     0.09100
C119        C  0.67527964  0.37087154  0.20794319    -0.54400
C120        C  0.67324869  0.33135702  0.20735710     0.09700
H121        H  0.66370253  0.38682063  0.29399493     0.14200
H122        H  0.67843597  0.27850298  0.24170441    -0.00100
H123        H  0.71755109  0.37908933  0.24998455     0.14500
H124        H  0.67092175  0.38984164  0.18559108     0.14300
In125      In  0.58968537  0.20339854  0.00020901     1.36900
C126        C  0.60989264  0.22533210  0.05791554     0.77200
O127        O  0.57824913  0.15298323  0.96942515    -0.61300
O128        O  0.60229317  0.14302911  0.50392843    -0.52200
C129        C  0.55118669  0.21575540  0.51113041     0.69800
O130        O  0.56261444  0.20776859  0.03669191    -0.47000
C131        C  0.60720810  0.24194006  0.44482338     0.74500
O132        O  0.60979269  0.24481212  0.02852197    -0.58900
O133        O  0.61232252  0.20835651  0.45522368    -0.49000
O134        O  0.59940182  0.19461300  0.05803692    -0.55300
C135        C  0.59027243  0.12893801  0.98193662     0.84700
O136        O  0.55970859  0.21965720  0.48071132    -0.57200
O137        O  0.59343870  0.25611676  0.46347163    -0.60500
In138      In  0.39464163  0.20482799  0.00085482     1.36900
C139        C  0.37795518  0.24792529  0.44935599     0.77200
O140        O  0.39061491  0.15072235  0.46882247    -0.61300
O141        O  0.39484078  0.14454147  0.02538835    -0.52200
C142        C  0.43390465  0.21153185  0.99750312     0.69800
O143        O  0.42327298  0.21049770  0.46993558    -0.47000
C144        C  0.37486001  0.23085403  0.05805393     0.74500
O145        O  0.39263023  0.25968097  0.46674439    -0.58900
O146        O  0.36915678  0.20173955  0.04076035    -0.49000
O147        O  0.37170599  0.21429560  0.45872769    -0.55300
C148        C  0.39233616  0.12787537  0.49581119     0.84700
O149        O  0.42440393  0.20920546  0.02714775    -0.57200
O150        O  0.39075042  0.24639113  0.04616660    -0.60500
C151        C  0.29589884  0.63285912  0.26556586     0.86100
C152        C  0.30940548  0.64532756  0.29622244    -0.54200
C153        C  0.31291798  0.68463518  0.29763562     0.09000
C154        C  0.30197679  0.70815458  0.26816136     0.19900
C155        C  0.27704837  0.65610913  0.27161957    -0.54900
C156        C  0.28009588  0.69541339  0.27319491     0.09100
C157        C  0.30540800  0.65115065  0.23103598    -0.54400
C158        C  0.30880570  0.69040534  0.23213874     0.09700
H159        H  0.31556155  0.62443910  0.31527523     0.14200
H160        H  0.30464034  0.74004375  0.26918214    -0.00100
H161        H  0.26237599  0.64347199  0.27421546     0.14500
H162        H  0.30922585  0.63412323  0.20767477     0.14300
C163        C  0.66539003  0.61747253  0.21941703     0.86100
C164        C  0.65150196  0.63302220  0.24846202    -0.54200
C165        C  0.64859132  0.67211708  0.24603622     0.09000
C166        C  0.66020468  0.69257571  0.21451729     0.19900
C167        C  0.65683390  0.63136067  0.18331411    -0.54900
C168        C  0.65412799  0.67064226  0.18046381     0.09100
C169        C  0.68453456  0.64208998  0.22262076    -0.54400
C170        C  0.68190201  0.68155231  0.22028731     0.09700
H171        H  0.64487861  0.61442622  0.26977889     0.14200
H172        H  0.65776389  0.72433784  0.21264684    -0.00100
H173        H  0.65305635  0.61151678  0.16202927     0.14500
H174        H  0.69904192  0.63003686  0.22510264     0.14300
In175      In  0.58566840  0.82319275  0.96445890     1.36900
C176        C  0.60278043  0.79368176  0.40628729     0.77200
O177        O  0.57820635  0.88524561  0.45115813    -0.61300
O178        O  0.60485689  0.87422586  0.97832183    -0.52200
C179        C  0.54647058  0.81345838  0.96606779     0.69800
O180        O  0.55618006  0.82174636  0.43744433    -0.47000
C181        C  0.60112768  0.79042373  0.02317206     0.74500
O182        O  0.58981086  0.77518835  0.42506407    -0.58900
O183        O  0.59070154  0.82037479  0.02410610    -0.49000
O184        O  0.60695679  0.82712652  0.41744428    -0.55300
C185        C  0.59337064  0.89925194  0.46552495     0.84700
O186        O  0.55690071  0.80863952  0.99362739    -0.57200
O187        O  0.60327399  0.77657380  0.99210404    -0.60500
In188      In  0.39126848  0.81912226  0.00987479     1.36900
C189        C  0.37272440  0.77966115  0.06428718     0.77200
O190        O  0.39221829  0.87931189  0.98480719    -0.61300
O191        O  0.39127250  0.87365147  0.54208145    -0.52200
C192        C  0.43041388  0.81120960  0.50654996     0.69800
O193        O  0.42078163  0.81186934  0.03594800    -0.47000
C194        C  0.37012987  0.79435126  0.45421646     0.74500
O195        O  0.36758807  0.81300514  0.05337972    -0.58900
O196        O  0.36648350  0.82527992  0.47044141    -0.49000
O197        O  0.38723727  0.76640478  0.04707037    -0.55300
C198        C  0.39200233  0.89627493  0.01460554     0.84700
O199        O  0.41992357  0.81330416  0.47878278    -0.57200
O200        O  0.38455684  0.77591347  0.46668766    -0.60500
C201        C  0.45218292  0.80905330  0.50486179    -0.05700
C202        C  0.46297622  0.80505326  0.03683816    -0.05600
C203        C  0.48357273  0.80410979  0.03555617    -0.23700
C204        C  0.49378047  0.80737147  0.00225611     0.18500
C205        C  0.48307711  0.81156651  0.46991391     0.15700
C206        C  0.46237248  0.81225131  0.47141494    -0.18800
C207        C  0.49329126  0.81535851  0.43664909    -0.20600
C208        C  0.51389747  0.81526498  0.43541805    -0.13200
C209        C  0.52468170  0.81115283  0.96739200     0.03500
C210        C  0.51448688  0.80697979  0.00077393    -0.25300
H211        H  0.45546505  0.80273834  0.06293133     0.08600
H212        H  0.49151574  0.80103049  0.06062763     0.12200
H213        H  0.45421604  0.81568521  0.44659962     0.12100
H214        H  0.48535071  0.81870730  0.41160199     0.11900
H215        H  0.52142737  0.81873985  0.40941361     0.12400
H216        H  0.52265376  0.80415847  0.02563616     0.14400
C217        C  0.63623778  0.69231090  0.27292040    -0.05700
C218        C  0.61942602  0.67353473  0.28857566    -0.05600
C219        C  0.60911092  0.69023551  0.31704022    -0.23700
C220        C  0.61542006  0.72604084  0.33038032     0.18500
C221        C  0.63183560  0.74589621  0.31390598     0.15700
C222        C  0.64205706  0.72902595  0.28512794    -0.18800
C223        C  0.63811527  0.78175367  0.32723631    -0.20600
C224        C  0.62847681  0.79744171  0.35703478    -0.13200
C225        C  0.61243104  0.77752093  0.37406009     0.03500
C226        C  0.60583861  0.74194969  0.36034868    -0.25300
H227        H  0.61440392  0.64554908  0.27914274     0.08600
H228        H  0.59644382  0.67478986  0.32906422     0.12200
H229        H  0.65509790  0.74359069  0.27355381     0.12100
H230        H  0.65063896  0.79741630  0.31493072     0.11900
H231        H  0.63376349  0.82497543  0.36709068     0.12400
H232        H  0.59339557  0.72648107  0.37318447     0.14400
C233        C  0.64639657  0.68986975  0.14733604    -0.05700
C234        C  0.65082328  0.67521301  0.11300925    -0.05600
C235        C  0.64307593  0.69231180  0.08180823    -0.23700
C236        C  0.63080436  0.72449381  0.08432090     0.18500
C237        C  0.62659998  0.74002964  0.11859776     0.15700
C238        C  0.63440273  0.72261090  0.14986681    -0.18800
C239        C  0.61446744  0.77246763  0.12104310    -0.20600
C240        C  0.60632828  0.78898711  0.08989557    -0.13200
C241        C  0.61010557  0.77325339  0.05582040     0.03500
C242        C  0.62252761  0.74116983  0.05317262    -0.25300
H243        H  0.66039036  0.65055463  0.11019028     0.08600
H244        H  0.64660429  0.68023717  0.05574621     0.12200
H245        H  0.63069819  0.73396775  0.17614207     0.12100
H246        H  0.61115844  0.78488544  0.14704879     0.11900
H247        H  0.59689468  0.81389200  0.09252759     0.12400
H248        H  0.62565914  0.72904248  0.02695247     0.14400
C249        C  0.35839841  0.78078687  0.42333974    -0.05700
C250        C  0.34306516  0.80345909  0.40942227    -0.05600
C251        C  0.33154598  0.79007827  0.38104538    -0.23700
C252        C  0.33508419  0.75365333  0.36614410     0.18500
C253        C  0.35071302  0.73103768  0.37955796     0.15700
C254        C  0.36228020  0.74475908  0.40786662    -0.18800
C255        C  0.35436607  0.69473135  0.36481653    -0.20600
C256        C  0.34238094  0.68040737  0.33772899    -0.13200
C257        C  0.32634872  0.70189349  0.32478464     0.03500
C258        C  0.32303754  0.73903213  0.33871396    -0.25300
H259        H  0.33985221  0.83145216  0.42072274     0.08600
H260        H  0.31969800  0.80797031  0.37112271     0.12200
H261        H  0.37410564  0.72706241  0.41824088     0.12100
H262        H  0.36641209  0.67718356  0.37446873     0.11900
H263        H  0.34575575  0.65230025  0.32688454     0.12400
H264        H  0.31071913  0.75593496  0.32928692     0.14400
C265        C  0.36266928  0.75799189  0.09477271    -0.05700
C266        C  0.36857188  0.72021332  0.10462186    -0.05600
C267        C  0.35918629  0.69951714  0.13333455    -0.23700
C268        C  0.34378335  0.71631204  0.15292386     0.18500
C269        C  0.33784019  0.75442705  0.14353853     0.15700
C270        C  0.34723668  0.77495164  0.11442739    -0.18800
C271        C  0.32269415  0.77142976  0.16362156    -0.20600
C272        C  0.31350861  0.75087986  0.19265652    -0.13200
C273        C  0.31899657  0.71271524  0.20185852     0.03500
C274        C  0.33428746  0.69568317  0.18181013    -0.25300
H275        H  0.38044014  0.70654970  0.08999465     0.08600
H276        H  0.36399386  0.67037530  0.14023163     0.12200
H277        H  0.34262265  0.80416480  0.10723883     0.12100
H278        H  0.31798242  0.80069514  0.15696042     0.11900
H279        H  0.30192599  0.76480849  0.20747833     0.12400
H280        H  0.33903801  0.66657552  0.18901473     0.14400
C281        C  0.39242418  0.93907042  0.01709084    -0.05700
C282        C  0.39212154  0.95642831  0.05105740    -0.05600
C283        C  0.39198924  0.99690220  0.05357185    -0.23700
C284        C  0.39211966  0.02067817  0.02213799     0.18500
C285        C  0.39258543  0.00352448  0.98779666     0.15700
C286        C  0.39282596  0.96283660  0.98549798    -0.18800
C287        C  0.39264078  0.02737497  0.95637845    -0.20600
C288        C  0.39222029  0.06786956  0.45899668    -0.13200
C289        C  0.39188703  0.08513035  0.49302416     0.03500
C290        C  0.39179148  0.06132024  0.52452345    -0.25300
H291        H  0.39185737  0.93866984  0.07573806     0.08600
H292        H  0.39167656  0.00959411  0.08009636     0.12200
H293        H  0.39309077  0.94969839  0.95915286     0.12100
H294        H  0.39298372  0.01473002  0.92983464     0.11900
H295        H  0.39239510  0.08571659  0.43437283     0.12400
H296        H  0.39153923  0.07440131  0.55089719     0.14400
C297        C  0.59704104  0.94142293  0.46830493    -0.05700
C298        C  0.61244612  0.95529302  0.48965507    -0.05600
C299        C  0.61485678  0.99512924  0.49518120    -0.23700
C300        C  0.60187467  0.02168921  0.97945626     0.18500
C301        C  0.58674826  0.00803663  0.95689452     0.15700
C302        C  0.58445920  0.96802414  0.95141305    -0.18800
C303        C  0.57379294  0.03452697  0.94106565    -0.20600
C304        C  0.57533885  0.07402443  0.94857663    -0.13200
C305        C  0.58987760  0.08769572  0.97196469     0.03500
C306        C  0.60339035  0.06148156  0.98674258    -0.25300
H307        H  0.62232721  0.93523432  0.50288968     0.08600
H308        H  0.62658398  0.00507072  0.51240340     0.12200
H309        H  0.57258074  0.95754055  0.93477381     0.12100
H310        H  0.56219602  0.02460240  0.92354364     0.11900
H311        H  0.56484425  0.09378870  0.93668474     0.12400
H312        H  0.61471977  0.07184359  0.00464179     0.14400
C313        C  0.45564578  0.21514160  0.99489951    -0.05700
C314        C  0.46489811  0.22095608  0.46082997    -0.05600
C315        C  0.48539530  0.22395361  0.45761362    -0.23700
C316        C  0.49707137  0.22089122  0.48841131     0.18500
C317        C  0.48799216  0.21517125  0.02292027     0.15700
C318        C  0.46729709  0.21247539  0.02598501    -0.18800
C319        C  0.49981644  0.21166735  0.05360285    -0.20600
C320        C  0.52041458  0.21300555  0.05000190    -0.13200
C321        C  0.52952510  0.21818776  0.51571471     0.03500
C322        C  0.51769842  0.22265887  0.48509033    -0.25300
H323        H  0.45625667  0.22317709  0.43651847     0.08600
H324        H  0.49212500  0.22829820  0.43096200     0.12200
H325        H  0.46030537  0.20786669  0.05239477     0.12100
H326        H  0.49314938  0.20724025  0.08028969     0.11900
H327        H  0.52922293  0.20927299  0.07396387     0.12400
H328        H  0.52454545  0.22638833  0.45845749     0.14400
C329        C  0.68428877  0.43091844  0.24236966    -0.05700
C330        C  0.70175786  0.45317539  0.24637763    -0.05600
C331        C  0.70163811  0.49371948  0.24289199    -0.23700
C332        C  0.68414705  0.51302615  0.23520182     0.18500
C333        C  0.66646300  0.49131249  0.23190354     0.15700
C334        C  0.66659344  0.45067270  0.23604159    -0.18800
C335        C  0.64898912  0.51054783  0.22400339    -0.20600
C336        C  0.64908256  0.55098274  0.21938947    -0.13200
C337        C  0.66659111  0.57325003  0.22276440     0.03500
C338        C  0.68413510  0.55368450  0.23078602    -0.25300
H339        H  0.71570599  0.44008984  0.25202461     0.08600
H340        H  0.71533267  0.50997829  0.24583052     0.12200
H341        H  0.65296938  0.43410203  0.23323425     0.12100
H342        H  0.63525946  0.49435055  0.22132085     0.11900
H343        H  0.63531555  0.56515987  0.21354228     0.12400
H344        H  0.69786284  0.56930608  0.23411734     0.14400
C345        C  0.66496516  0.31154798  0.17561381    -0.05700
C346        C  0.66961624  0.32597468  0.14045211    -0.05600
C347        C  0.66031895  0.31080822  0.11043580    -0.23700
C348        C  0.64611521  0.28092393  0.11494624     0.18500
C349        C  0.64180006  0.26506332  0.14998381     0.15700
C350        C  0.65137159  0.28032783  0.18016070    -0.18800
C351        C  0.62760706  0.23495160  0.15419773    -0.20600
C352        C  0.61750401  0.22136731  0.12415121    -0.13200
C353        C  0.62130581  0.23786478  0.08945643     0.03500
C354        C  0.63585745  0.26729907  0.08503389    -0.25300
H355        H  0.68031148  0.34951503  0.13618886     0.08600
H356        H  0.66394995  0.32302840  0.08375105     0.12200
H357        H  0.64761511  0.26913032  0.20716131     0.12100
H358        H  0.62412169  0.22229161  0.18076968     0.11900
H359        H  0.60639414  0.19854827  0.12816165     0.12400
H360        H  0.63903842  0.27998033  0.05832715     0.14400
C361        C  0.65793913  0.30644061  0.30305438    -0.05700
C362        C  0.66454778  0.26935924  0.31378067    -0.05600
C363        C  0.65572471  0.24899034  0.34326201    -0.23700
C364        C  0.64026416  0.26548808  0.36290003     0.18500
C365        C  0.63336109  0.30254273  0.35219227     0.15700
C366        C  0.64206401  0.32252056  0.32220059    -0.18800
C367        C  0.61803345  0.31929474  0.37197901    -0.20600
C368        C  0.60967997  0.29964015  0.40224451    -0.13200
C369        C  0.61641477  0.26279804  0.41316697     0.03500
C370        C  0.63171627  0.24578548  0.39325470    -0.25300
H371        H  0.67698889  0.25645115  0.30024215     0.08600
H372        H  0.66126743  0.22066865  0.35114368     0.12200
H373        H  0.63653361  0.35074939  0.31402279     0.12100
H374        H  0.61257463  0.34770637  0.36417255     0.11900
H375        H  0.59786932  0.31326070  0.41706683     0.12400
H376        H  0.63700365  0.21732601  0.40140493     0.14400
C377        C  0.30874536  0.44472443  0.25196637    -0.05700
C378        C  0.32695103  0.46515324  0.25154229    -0.05600
C379        C  0.32779230  0.50556232  0.25367293    -0.23700
C380        C  0.31042422  0.52657679  0.25688264     0.18500
C381        C  0.29203771  0.50671674  0.25780712     0.15700
C382        C  0.29125461  0.46603803  0.25525677    -0.18800
C383        C  0.27470692  0.52788862  0.26149816    -0.20600
C384        C  0.27556397  0.56835832  0.26426530    -0.13200
C385        C  0.29386093  0.58866527  0.26334955     0.03500
C386        C  0.31119973  0.56713948  0.25944277    -0.25300
H387        H  0.34066089  0.44958406  0.24963635     0.08600
H388        H  0.34205204  0.52032979  0.25313099     0.12200
H389        H  0.27699108  0.45169554  0.25668396     0.12100
H390        H  0.26043920  0.51314191  0.26222094     0.11900
H391        H  0.26171510  0.58294821  0.26671031     0.12400
H392        H  0.32539846  0.58220955  0.25845688     0.14400
C393        C  0.33599365  0.32841392  0.18951069    -0.05700
C394        C  0.35295411  0.34805835  0.17544758    -0.05600
C395        C  0.36422329  0.33221308  0.14776754    -0.23700
C396        C  0.35873915  0.29642140  0.13339361     0.18500
C397        C  0.34197898  0.27590842  0.14768345     0.15700
C398        C  0.33087785  0.29178864  0.17599698    -0.18800
C399        C  0.33639143  0.24029017  0.13283249    -0.20600
C400        C  0.34714078  0.22550355  0.10377253    -0.13200
C401        C  0.36377811  0.24584213  0.08936164     0.03500
C402        C  0.36960017  0.28114133  0.10460714    -0.25300
H403        H  0.35761113  0.37579973  0.18594331     0.08600
H404        H  0.37711135  0.34820013  0.13732409     0.12200
H405        H  0.31797006  0.27620119  0.18651735     0.12100
H406        H  0.32357382  0.22414244  0.14335872     0.11900
H407        H  0.34240246  0.19818499  0.09249082     0.12400
H408        H  0.38237670  0.29712616  0.09363425     0.14400
C409        C  0.32904860  0.32049750  0.31394970    -0.05700
C410        C  0.32096630  0.28391509  0.32439616    -0.05600
C411        C  0.32868125  0.26276816  0.35354713    -0.23700
C412        C  0.34468337  0.27780585  0.37259363     0.18500
C413        C  0.35286124  0.31470319  0.36239976     0.15700
C414        C  0.34498524  0.33579739  0.33321656    -0.18800
C415        C  0.36888149  0.32973640  0.38138688    -0.20600
C416        C  0.37689798  0.30817376  0.40996634    -0.13200
C417        C  0.36900336  0.27129234  0.42006053     0.03500
C418        C  0.35277383  0.25639863  0.40139766    -0.25300
H419        H  0.30847100  0.27188632  0.31036510     0.08600
H420        H  0.32217631  0.23460770  0.36111498     0.12200
H421        H  0.35146459  0.36385130  0.32515650     0.12100
H422        H  0.37530509  0.35800719  0.37395722     0.11900
H423        H  0.38939699  0.32022201  0.42398369     0.12400
H424        H  0.34657476  0.22796897  0.40899762     0.14400
C425        C  0.02528497  0.72691188  0.52030883    -0.05700
C426        C  0.01596020  0.75276877  0.04362263    -0.05600
C427        C  0.99540195  0.75604970  0.04394865    -0.23700
C428        C  0.98388565  0.73365526  0.02079101     0.18500
C429        C  0.99327307  0.70798087  0.49699885     0.15700
C430        C  0.01381047  0.70472967  0.49698548    -0.18800
C431        C  0.98197501  0.68561405  0.47370569    -0.20600
C432        C  0.96149352  0.68779014  0.47455549    -0.13200
C433        C  0.95187444  0.71239261  0.99862987     0.03500
C434        C  0.96318068  0.73581977  0.02140448    -0.25300
H435        H  0.02455368  0.77015484  0.06183824     0.08600
H436        H  0.98851724  0.77588670  0.06241716     0.12200
H437        H  0.02086788  0.68483335  0.47874729     0.12100
H438        H  0.98896371  0.66597052  0.45516915     0.11900
H439        H  0.95312492  0.66950075  0.45674452     0.12400
H440        H  0.95589401  0.75479387  0.04018488     0.14400
C441        C  0.76268451  0.78280739  0.24996357    -0.05700
C442        C  0.76394968  0.74522302  0.26547504    -0.05600
C443        C  0.74844697  0.71821904  0.26275396    -0.23700
C444        C  0.73138288  0.72807743  0.24403088     0.18500
C445        C  0.73003906  0.76537322  0.22737403     0.15700
C446        C  0.74566456  0.79255335  0.23048533    -0.18800
C447        C  0.71304764  0.77479782  0.20810866    -0.20600
C448        C  0.69751374  0.74761204  0.20560850    -0.13200
C449        C  0.69853374  0.71055166  0.22263922     0.03500
C450        C  0.71563558  0.70122081  0.24192644    -0.25300
H451        H  0.77670108  0.73686475  0.28060849     0.08600
H452        H  0.74976921  0.68964713  0.27555783     0.12200
H453        H  0.74459857  0.82114042  0.21760929     0.12100
H454        H  0.71179448  0.80314591  0.19484543     0.11900
H455        H  0.68486494  0.75560991  0.18982148     0.12400
H456        H  0.71668790  0.67326979  0.25594473     0.14400
C457        C  0.86473229  0.75619613  0.42176733    -0.05700
C458        C  0.86971053  0.79510581  0.41246084    -0.05600
C459        C  0.86030802  0.81454239  0.38409489    -0.23700
C460        C  0.84572634  0.79544368  0.36442105     0.18500
C461        C  0.84085020  0.75605774  0.37292784     0.15700
C462        C  0.85037779  0.73664349  0.40156403    -0.18800
C463        C  0.82638891  0.73702494  0.35285539    -0.20600
C464        C  0.81654092  0.75708998  0.32525863    -0.13200
C465        C  0.82079044  0.79663790  0.31734808     0.03500
C466        C  0.83576885  0.81532657  0.33673525    -0.25300
H467        H  0.88073689  0.81076042  0.42747494     0.08600
H468        H  0.86428695  0.84470506  0.37782825     0.12200
H469        H  0.84647329  0.70654895  0.40834830     0.12100
H470        H  0.82250636  0.70674142  0.35876258     0.11900
H471        H  0.80527626  0.74178378  0.31084287     0.12400
H472        H  0.83971563  0.84547824  0.33037975     0.14400
C473        C  0.82026149  0.81249046  0.19122091    -0.05700
C474        C  0.81739648  0.83045397  0.15709263    -0.05600
C475        C  0.82676413  0.81677925  0.12623350    -0.23700
C476        C  0.83923405  0.78489474  0.12886482     0.18500
C477        C  0.84226690  0.76647425  0.16298294     0.15700
C478        C  0.83265955  0.78027023  0.19397010    -0.18800
C479        C  0.85498356  0.73481598  0.16546082    -0.20600
C480        C  0.86475349  0.72190263  0.13452090    -0.13200
C481        C  0.86179356  0.74017280  0.10061093     0.03500
C482        C  0.84883713  0.77139189  0.09791778    -0.25300
H483        H  0.80760297  0.85482256  0.15408482     0.08600
H484        H  0.82424130  0.83115626  0.10030038     0.12200
H485        H  0.83511952  0.76645769  0.22018466     0.12100
H486        H  0.85749961  0.72028646  0.19131983     0.11900
H487        H  0.87462428  0.69758705  0.13709387     0.12400
H488        H  0.84651626  0.78567277  0.07184419     0.14400
C489        C  0.26342758  0.72224555  0.27875940    -0.05700
C490        C  0.24734954  0.71086838  0.30149634    -0.05600
C491        C  0.23061951  0.73383266  0.30374433    -0.23700
C492        C  0.22962711  0.76861035  0.28323176     0.18500
C493        C  0.24594665  0.78098985  0.26126623     0.15700
C494        C  0.26277826  0.75790555  0.25945831    -0.18800
C495        C  0.24499425  0.81589190  0.24088699    -0.20600
C496        C  0.22795678  0.83810103  0.24198744    -0.13200
C497        C  0.21154591  0.82573397  0.26332453     0.03500
C498        C  0.21254030  0.79102394  0.28404399    -0.25300
H499        H  0.24761594  0.68388948  0.31731769     0.08600
H500        H  0.21834325  0.72406738  0.32104682     0.12200
H501        H  0.27496273  0.76704412  0.24194762     0.12100
H502        H  0.25734670  0.82583637  0.22386026     0.11900
H503        H  0.22746821  0.86469547  0.22562321     0.12400
H504        H  0.20017263  0.78170107  0.30110804     0.14400
C505        C  0.11402791  0.75645650  0.10907455    -0.05700
C506        C  0.10688074  0.74680986  0.14417643    -0.05600
C507        C  0.11564946  0.76285118  0.17448376    -0.23700
C508        C  0.13164836  0.78909845  0.17024107     0.18500
C509        C  0.13883277  0.79931419  0.13500471     0.15700
C510        C  0.13007629  0.78274964  0.10471919    -0.18800
C511        C  0.15449793  0.82632974  0.13063769    -0.20600
C512        C  0.16277872  0.84346759  0.16081925    -0.13200
C513        C  0.15582448  0.83331906  0.19587359     0.03500
C514        C  0.14040797  0.80574697  0.20052886    -0.25300
H515        H  0.09446546  0.72680650  0.14821850     0.08600
H516        H  0.10985226  0.75486899  0.20122678     0.12200
H517        H  0.13560223  0.79069616  0.07776574     0.12100
H518        H  0.16016171  0.83460415  0.10387173     0.11900
H519        H  0.17466279  0.86473232  0.15685621     0.12400
H520        H  0.13487257  0.79825251  0.22758453     0.14400
C521        C  0.10813502  0.77378578  0.42905213    -0.05700
C522        C  0.10064760  0.81018570  0.41864668    -0.05600
C523        C  0.10886039  0.83118082  0.38895405    -0.23700
C524        C  0.12461560  0.81596558  0.36907246     0.18500
C525        C  0.13176248  0.77877994  0.37857504     0.15700
C526        C  0.12353027  0.75798964  0.40853327    -0.18800
C527        C  0.14721985  0.76325337  0.35826004    -0.20600
C528        C  0.15607756  0.78500100  0.32969871    -0.13200
C529        C  0.14984585  0.82288544  0.32110725     0.03500
C530        C  0.13360412  0.83763451  0.34035761    -0.25300
H531        H  0.08870528  0.82278754  0.43393940     0.08600
H532        H  0.10309544  0.85955073  0.38189417     0.12200
H533        H  0.12923756  0.72968287  0.41607718     0.12100
H534        H  0.15270932  0.73453923  0.36486191     0.11900
H535        H  0.16816736  0.77231476  0.31518707     0.12400
H536        H  0.12801016  0.86613509  0.33332849     0.14400
C537        C  0.08663409  0.44661405  0.53200322    -0.05700
C538        C  0.08444539  0.46335313  0.06607046    -0.05600
C539        C  0.08525358  0.50374498  0.06945645    -0.23700
C540        C  0.08836456  0.52818526  0.03883151     0.18500
C541        C  0.09064638  0.51171493  0.50438327     0.15700
C542        C  0.08968600  0.47103139  0.50115936    -0.18800
C543        C  0.09373522  0.53626400  0.47377901    -0.20600
C544        C  0.09428243  0.57672158  0.47721427    -0.13200
C545        C  0.09181554  0.59335431  0.01130502     0.03500
C546        C  0.08903011  0.56882009  0.04207644    -0.25300
H547        H  0.08204065  0.44515612  0.09019671     0.08600
H548        H  0.08344461  0.51586209  0.09605100     0.12200
H549        H  0.09140867  0.45841059  0.47474619     0.12100
H550        H  0.09552697  0.52420692  0.44715605     0.11900
H551        H  0.09636219  0.59504440  0.45308477     0.12400
H552        H  0.08698789  0.58133840  0.06846571     0.14400
C553        C  0.88235096  0.43860842  0.99294558    -0.05700
C554        C  0.88065638  0.45845979  0.95946736    -0.05600
C555        C  0.87978345  0.49900349  0.95770226    -0.23700
C556        C  0.88063566  0.52035891  0.98939973     0.18500
C557        C  0.88193730  0.50067296  0.52334296     0.15700
C558        C  0.88271331  0.45986951  0.52490237    -0.18800
C559        C  0.88297997  0.52223944  0.55497953    -0.20600
C560        C  0.88340043  0.56295117  0.55280943    -0.13200
C561        C  0.88252767  0.58259581  0.51903301     0.03500
C562        C  0.88073987  0.56110077  0.98752632    -0.25300
H563        H  0.88033336  0.44264014  0.93452768     0.08600
H564        H  0.87876445  0.51368429  0.93148772     0.12200
H565        H  0.88399553  0.44476499  0.55087784     0.12100
H566        H  0.88394407  0.50766497  0.58125018     0.11900
H567        H  0.88475013  0.57906524  0.57745611     0.12400
H568        H  0.88011639  0.57605477  0.96135608     0.14400
C569        C  0.02343289  0.31353246  0.02551869    -0.05700
C570        C  0.01287848  0.31417477  0.05857321    -0.05600
C571        C  0.99225995  0.31301544  0.05933649    -0.23700
C572        C  0.98179026  0.31123342  0.02702482     0.18500
C573        C  0.99222844  0.30979431  0.49365258     0.15700
C574        C  0.01296756  0.31089771  0.49311394    -0.18800
C575        C  0.98173225  0.30787479  0.46135453    -0.20600
C576        C  0.96110837  0.30812587  0.46203248    -0.13200
C577        C  0.95060574  0.31036947  0.49498848     0.03500
C578        C  0.96107628  0.31149231  0.02747998    -0.25300
H579        H  0.02058322  0.31613729  0.08389627     0.08600
H580        H  0.98450744  0.31401482  0.08517562     0.12200
H581        H  0.02094185  0.31030751  0.46745950     0.12100
H582        H  0.98947589  0.30662881  0.43552784     0.11900
H583        H  0.95337018  0.30717469  0.43667835     0.12400
H584        H  0.95312403  0.31307807  0.05308911     0.14400
C585        C  0.71846804  0.29944516  0.25317534    -0.05700
C586        C  0.73384569  0.31056873  0.27604557    -0.05600
C587        C  0.75035946  0.28733356  0.28027620    -0.23700
C588        C  0.75179895  0.25242197  0.26182352     0.18500
C589        C  0.73616028  0.24034430  0.23964892     0.15700
C590        C  0.71960550  0.26389358  0.23548866    -0.18800
C591        C  0.73749013  0.20518050  0.22153564    -0.20600
C592        C  0.75424916  0.18247132  0.22494735    -0.13200
C593        C  0.77002207  0.19458512  0.24637710     0.03500
C594        C  0.76867040  0.22956304  0.26491113    -0.25300
H595        H  0.73311962  0.33730334  0.29081850     0.08600
H596        H  0.76207083  0.29684092  0.29773500     0.12200
H597        H  0.70793518  0.25505494  0.21765002     0.12100
H598        H  0.72565672  0.19541052  0.20447448     0.11900
H599        H  0.75504311  0.15569789  0.21022634     0.12400
H600        H  0.78064852  0.23878085  0.28193023     0.14400
C601        C  0.79248633  0.92016764  0.26411612    -0.05700
C602        C  0.77417279  0.93889386  0.26297453    -0.05600
C603        C  0.77323638  0.97946960  0.26222682    -0.23700
C604        C  0.79051067  0.00240236  0.26251781     0.18500
C605        C  0.80892804  0.98427403  0.26483106     0.15700
C606        C  0.80978929  0.94346727  0.26592850    -0.18800
C607        C  0.82618833  0.00727252  0.26505591    -0.20600
C608        C  0.82517983  0.04785107  0.26226750    -0.13200
C609        C  0.80692007  0.06654824  0.25940949     0.03500
C610        C  0.78957724  0.04314124  0.25991226    -0.25300
H611        H  0.76039308  0.92298384  0.26186793     0.08600
H612        H  0.75893919  0.99294623  0.26071338     0.12200
H613        H  0.82402535  0.92964900  0.26695126     0.12100
H614        H  0.84049299  0.99388630  0.26685678     0.11900
H615        H  0.83878297  0.06487316  0.26204822     0.12400
H616        H  0.77520285  0.05566568  0.25784069     0.14400
C617        C  0.85820231  0.27467456  0.08634341    -0.05700
C618        C  0.84107873  0.29229319  0.09954818    -0.05600
C619        C  0.83043699  0.27550869  0.12904396    -0.23700
C620        C  0.83665603  0.24062264  0.14554713     0.18500
C621        C  0.85405396  0.22318105  0.13269839     0.15700
C622        C  0.86474090  0.24040997  0.10348200    -0.18800
C623        C  0.86033189  0.18831096  0.14879916    -0.20600
C624        C  0.84922771  0.17019916  0.17676380    -0.13200
C625        C  0.83164082  0.18660170  0.18936548     0.03500
C626        C  0.82561504  0.22235892  0.17405800    -0.25300
H627        H  0.83583613  0.31886622  0.08688589     0.08600
H628        H  0.81718009  0.28943064  0.13853276     0.12200
H629        H  0.87795375  0.22659168  0.09358100     0.12100
H630        H  0.87372678  0.17475374  0.13946558     0.11900
H631        H  0.85450401  0.14328594  0.18868681     0.12400
H632        H  0.81205786  0.23527335  0.18341974     0.14400
C633        C  0.82897705  0.19519664  0.31045596    -0.05700
C634        C  0.83746522  0.23136680  0.29931012    -0.05600
C635        C  0.84749643  0.25451543  0.32377207    -0.23700
C636        C  0.84962720  0.24167790  0.35977058     0.18500
C637        C  0.84166838  0.20495318  0.37110267     0.15700
C638        C  0.83119570  0.18229161  0.34664049    -0.18800
C639        C  0.84428816  0.19147094  0.40679216    -0.20600
C640        C  0.85448402  0.21435558  0.43117032    -0.13200
C641        C  0.86198834  0.25137700  0.42051135     0.03500
C642        C  0.85957336  0.26487172  0.38463771    -0.25300
H643        H  0.83673559  0.24177896  0.27150836     0.08600
H644        H  0.85374191  0.28233435  0.31442400     0.12200
H645        H  0.82464739  0.15481136  0.35609582     0.12100
H646        H  0.83841164  0.16326463  0.41589405     0.11900
H647        H  0.85619076  0.20333992  0.45865803     0.12400
H648        H  0.86548449  0.29324577  0.37607746     0.14400
C649        C  0.20906069  0.23913383  0.27200736    -0.05700
C650        C  0.20823316  0.27324626  0.29191956    -0.05600
C651        C  0.22391605  0.30025831  0.29020696    -0.23700
C652        C  0.24061423  0.29348361  0.26847624     0.18500
C653        C  0.24122920  0.25985970  0.24737132     0.15700
C654        C  0.22538323  0.23323297  0.24893756    -0.18800
C655        C  0.25790776  0.25285824  0.22577527    -0.20600
C656        C  0.27409084  0.27849745  0.22577943    -0.13200
C657        C  0.27374792  0.31179343  0.24686262     0.03500
C658        C  0.25684770  0.31933567  0.26795540    -0.25300
H659        H  0.19578084  0.27845853  0.30967959     0.08600
H660        H  0.22316481  0.32601348  0.30642173     0.12200
H661        H  0.22591400  0.20753904  0.23258235     0.12100
H662        H  0.25856580  0.22725054  0.20933684     0.11900
H663        H  0.28677891  0.27241716  0.20902050     0.12400
H664        H  0.25653018  0.34477142  0.28466880     0.14400
C665        C  0.17251603  0.95217545  0.26607214    -0.05700
C666        C  0.15371132  0.96895220  0.26529036    -0.09600
C667        C  0.15146848  0.00912532  0.26701211    -0.23700
C668        C  0.16801375  0.03372376  0.26936370     0.18500
C669        C  0.18698874  0.01760685  0.27020456     0.15700
C670        C  0.18917730  0.97707737  0.26861243    -0.18800
C671        C  0.20350188  0.04234802  0.27259832    -0.20600
C672        C  0.20128510  0.08263907  0.27391055    -0.13200
C673        C  0.18240144  0.09933721  0.27275610     0.03500
C674        C  0.16585531  0.07418864  0.27073365    -0.25300
H675        H  0.14061628  0.95065931  0.26333406     0.08600
H676        H  0.13677154  0.02094645  0.26634209     0.12200
H677        H  0.20388422  0.96573439  0.26922660     0.12100
H678        H  0.21819921  0.03053148  0.27347362     0.11900
H679        H  0.21460056  0.09983260  0.27608669     0.12400
H680        H  0.15121255  0.08633063  0.27010752     0.14400
C681        C  0.15360850  0.21967627  0.21273589    -0.05700
C682        C  0.15877567  0.25894238  0.20515277    -0.05600
C683        C  0.15001632  0.27965436  0.17680103    -0.23700
C684        C  0.13596530  0.26148835  0.15526241     0.18500
C685        C  0.13071351  0.22198194  0.16240684     0.15700
C686        C  0.13952082  0.20137923  0.19106282    -0.18800
C687        C  0.11665996  0.20379307  0.14084635    -0.20600
C688        C  0.10774833  0.22462298  0.11271532    -0.13200
C689        C  0.11275963  0.26397688  0.10551084     0.03500
C690        C  0.12702443  0.28218606  0.12680657    -0.25300
H691        H  0.16993833  0.27362565  0.22059331     0.08600
H692        H  0.15432673  0.30984643  0.17159721     0.12200
H693        H  0.13519809  0.17127761  0.19671060     0.12100
H694        H  0.11247004  0.17351067  0.14586511     0.11900
H695        H  0.09684094  0.20993574  0.09664797     0.12400
H696        H  0.13100667  0.31254309  0.12151804     0.14400
C697        C  0.11746415  0.28786834  0.43663273    -0.05700
C698        C  0.13338215  0.31050088  0.42233065    -0.05600
C699        C  0.14514121  0.29685244  0.39405033    -0.23700
C700        C  0.14128789  0.26015554  0.37969612     0.18500
C701        C  0.12527520  0.23723638  0.39383521     0.15700
C702        C  0.11340689  0.25131176  0.42197851    -0.18800
C703        C  0.12151474  0.20040041  0.37985352    -0.20600
C704        C  0.13358161  0.18620091  0.35238790    -0.13200
C705        C  0.14962382  0.20856793  0.33812096     0.03500
C706        C  0.15326734  0.24580383  0.35175667    -0.25300
H707        H  0.13680872  0.33876771  0.43314707     0.08600
H708        H  0.15734792  0.31486002  0.38362525     0.12200
H709        H  0.10121921  0.23352394  0.43285961     0.12100
H710        H  0.10927366  0.18246845  0.39025526     0.11900
H711        H  0.13016772  0.15775684  0.34196403     0.12400
H712        H  0.16562630  0.26326133  0.34126915     0.14400
C713        C  0.17898304  0.14319482  0.77412271     0.86100
C714        C  0.16736612  0.15894598  0.74157240    -0.54200
C715        C  0.16327715  0.19782810  0.74275377     0.09000
C716        C  0.17115185  0.21735434  0.77684219     0.19900
C717        C  0.19735237  0.17008602  0.77486816    -0.54900
C718        C  0.19330595  0.20880453  0.77579339     0.09100
C719        C  0.16671439  0.15411890  0.80746195    -0.54400
C720        C  0.16241412  0.19276417  0.80901645     0.09700
H721        H  0.16342963  0.14097656  0.71899546     0.14200
H722        H  0.16775159  0.24872724  0.77816587    -0.00100
H723        H  0.21240836  0.16044425  0.77370809     0.14500
H724        H  0.16176569  0.13276453  0.82801735     0.14300
C725        C  0.80680756  0.11108154  0.75564512     0.86100
C726        C  0.81836806  0.12636068  0.72188051    -0.54200
C727        C  0.81973764  0.16611042  0.71851252     0.09000
C728        C  0.80900526  0.18703415  0.74920475     0.19900
C729        C  0.81690882  0.13087744  0.78737722    -0.54900
C730        C  0.81829708  0.17067917  0.78413804     0.09100
C731        C  0.78665386  0.13086152  0.75302092    -0.54400
C732        C  0.78779207  0.17042543  0.74961907     0.09700
H733        H  0.82508560  0.10712814  0.70255731     0.14200
H734        H  0.80962697  0.21919634  0.74619810    -0.00100
H735        H  0.82318805  0.11423342  0.80957571     0.14500
H736        H  0.77247879  0.11601563  0.75420713     0.14300
In737      In  0.88941483  0.31912727  0.49685823     1.36900
C738        C  0.86918881  0.29113282  0.55440722     0.77200
O739        O  0.88806501  0.37717561  0.52312572    -0.61300
O740        O  0.88313528  0.37526222  0.96681188    -0.52200
C741        C  0.92884576  0.31277061  0.99549331     0.69800
O742        O  0.91895634  0.31848364  0.52384033    -0.47000
C743        C  0.87204727  0.27577367  0.94715153     0.74500
O744        O  0.88545103  0.27765201  0.54397628    -0.58900
O745        O  0.87543994  0.31176741  0.94227302    -0.49000
O746        O  0.86310496  0.31921090  0.53508387    -0.55300
C747        C  0.88445360  0.39592742  0.49433196     0.84700
O748        O  0.91855546  0.30987729  0.96767813    -0.57200
O749        O  0.87774682  0.26218340  0.97708440    -0.60500
In750      In  0.08458469  0.32639673  0.02415376     1.36900
C751        C  0.10548966  0.30187510  0.96740502     0.77200
O752        O  0.08549722  0.38697961  0.99900403    -0.61300
O753        O  0.08548352  0.38089531  0.55621431    -0.52200
C754        C  0.04524288  0.31704723  0.52488982     0.69800
O755        O  0.05550320  0.31813750  0.99609437    -0.47000
C756        C  0.10285402  0.28609777  0.57629691     0.74500
O757        O  0.09035946  0.28390899  0.97989345    -0.58900
O758        O  0.10758296  0.32067299  0.56719613    -0.49000
O759        O  0.10971779  0.33259820  0.98371058    -0.55300
C760        C  0.08582484  0.40376721  0.02893424     0.84700
O761        O  0.05516794  0.31997649  0.55319487    -0.57200
O762        O  0.08882891  0.27210347  0.55855980    -0.60500
C763        C  0.17367607  0.90793312  0.76416651     0.86100
C764        C  0.16478165  0.89279967  0.72921267    -0.54200
C765        C  0.16400612  0.85322263  0.72742975     0.09000
C766        C  0.17240448  0.83197600  0.76079518     0.19900
C767        C  0.16171583  0.88739932  0.79499819    -0.54900
C768        C  0.16074822  0.84769212  0.79335771     0.09100
C769        C  0.19408448  0.88898585  0.76578620    -0.54400
C770        C  0.19344440  0.84928656  0.76395271     0.09700
H771        H  0.15934751  0.91184426  0.70779987     0.14200
H772        H  0.17189101  0.79983857  0.75852234    -0.00100
H773        H  0.15487574  0.90340864  0.81664995     0.14500
H774        H  0.20796595  0.90462093  0.76811033     0.14300
C775        C  0.79455938  0.87617351  0.76111218     0.86100
C776        C  0.80675782  0.86638550  0.72741889    -0.54200
C777        C  0.81013730  0.82767223  0.72368558     0.09000
C778        C  0.80108905  0.80183939  0.75468065     0.19900
C779        C  0.77563804  0.85080973  0.75830470    -0.54900
C780        C  0.77897614  0.81194587  0.75466415     0.09100
C781        C  0.80561642  0.85778129  0.79291059    -0.54400
C782        C  0.80935378  0.81899340  0.78973714     0.09700
H783        H  0.81215020  0.88852321  0.70795737     0.14200
H784        H  0.80391589  0.77042300  0.75145754    -0.00100
H785        H  0.76080096  0.86170454  0.75920475     0.14500
H786        H  0.81011127  0.87444029  0.81600792     0.14300
In787      In  0.89106108  0.70171393  0.50955180     1.36900
C788        C  0.87424038  0.73661256  0.95294455     0.77200
O789        O  0.88985685  0.64567678  0.04224780    -0.61300
O790        O  0.88246873  0.64423380  0.48684744    -0.52200
C791        C  0.93012839  0.71079166  0.50152413     0.69800
O792        O  0.92000496  0.68682919  0.98425773    -0.47000
C793        C  0.87233789  0.72703828  0.56814261     0.74500
O794        O  0.88757812  0.75282178  0.97106927    -0.58900
O795        O  0.88685977  0.70488020  0.56976457    -0.49000
O796        O  0.86951102  0.70252035  0.96396818    -0.55300
C797        C  0.88479787  0.62528521  0.01609709     0.84700
O798        O  0.92013938  0.73180977  0.52207811    -0.57200
O799        O  0.86759775  0.73695525  0.53645797    -0.60500
In800      In  0.08585349  0.71290443  0.51925188     1.36900
C801        C  0.10440403  0.74000105  0.57709937     0.77200
O802        O  0.09101158  0.65906431  0.48730630    -0.61300
O803        O  0.08897684  0.65269184  0.04428550    -0.52200
C804        C  0.04688042  0.72252558  0.02005017     0.69800
O805        O  0.05845153  0.74429415  0.53695664    -0.47000
C806        C  0.10017136  0.75244107  0.96148888     0.74500
O807        O  0.11032398  0.74722973  0.54507520    -0.58900
O808        O  0.08446304  0.76177090  0.97764660    -0.49000
O809        O  0.08935049  0.71801266  0.57948763    -0.55300
C810        C  0.09084940  0.63611848  0.51443946     0.84700
O811        O  0.05531228  0.69636410  0.00271706    -0.57200
O812        O  0.10864425  0.72339442  0.97541237    -0.60500
C813        C  0.30904661  0.40048086  0.75043327     0.86100
C814        C  0.32130343  0.38644243  0.71822089    -0.54200
C815        C  0.32350319  0.34701451  0.71745394     0.09000
C816        C  0.31254216  0.32490532  0.74889522     0.19900
C817        C  0.28925709  0.37811133  0.74784494    -0.54900
C818        C  0.29106646  0.33860099  0.74722214     0.09100
C819        C  0.31875762  0.38261679  0.78397554    -0.54400
C820        C  0.32058924  0.34315391  0.78343335     0.09700
H821        H  0.32779013  0.40636337  0.69782760     0.14200
H822        H  0.31414225  0.29283473  0.74851093    -0.00100
H823        H  0.27496657  0.39141606  0.74616253     0.14500
H824        H  0.32339634  0.39988767  0.80660594     0.14300
C825        C  0.68367962  0.38652039  0.74299230     0.86100
C826        C  0.67026853  0.36904379  0.77337386    -0.54200
C827        C  0.66837587  0.32926927  0.77343285     0.09000
C828        C  0.68005752  0.31065768  0.74236246     0.19900
C829        C  0.70327713  0.36505498  0.74742634    -0.54900
C830        C  0.70141665  0.32536245  0.74744592     0.09100
C831        C  0.67526068  0.37090569  0.70795754    -0.54400
C832        C  0.67323093  0.33139107  0.70736417     0.09700
H833        H  0.66368418  0.38683612  0.79401216     0.14200
H834        H  0.67842121  0.27853065  0.74170249    -0.00100
H835        H  0.71753286  0.37911971  0.74999497     0.14500
H836        H  0.67090050  0.38988039  0.68561039     0.14300
In837      In  0.58968602  0.20340083  0.50020217     1.36900
C838        C  0.60988334  0.22535221  0.55791317     0.77200
O839        O  0.57824501  0.15297647  0.46943673    -0.61300
O840        O  0.60228418  0.14302343  0.00394494    -0.52200
C841        C  0.55118722  0.21576516  0.01113530     0.69800
O842        O  0.56261686  0.20778846  0.53669030    -0.47000
C843        C  0.60720319  0.24194081  0.94483163     0.74500
O844        O  0.60976479  0.24485255  0.52853190    -0.58900
O845        O  0.61231274  0.20834900  0.95521768    -0.49000
O846        O  0.59941645  0.19460202  0.55801988    -0.55300
C847        C  0.59027552  0.12893702  0.48193385     0.84700
O848        O  0.55971193  0.21969373  0.98072103    -0.57200
O849        O  0.59344181  0.25612485  0.96349546    -0.60500
In850      In  0.39463968  0.20482741  0.50085769     1.36900
C851        C  0.37795232  0.24792191  0.94935447     0.77200
O852        O  0.39062761  0.15072311  0.96881149    -0.61300
O853        O  0.39483732  0.14454668  0.52539812    -0.52200
C854        C  0.43390323  0.21151210  0.49750669     0.69800
O855        O  0.42327450  0.21052063  0.96993172    -0.47000
C856        C  0.37485589  0.23085167  0.55805143     0.74500
O857        O  0.39263019  0.25967630  0.96673569    -0.58900
O858        O  0.36915331  0.20173700  0.54075774    -0.49000
O859        O  0.37170163  0.21429523  0.95873361    -0.55300
C860        C  0.39234608  0.12787258  0.99579825     0.84700
O861        O  0.42440222  0.20919969  0.52715133    -0.57200
O862        O  0.39074646  0.24638987  0.54616628    -0.60500
C863        C  0.29588831  0.63285114  0.76557090     0.86100
C864        C  0.30940027  0.64531098  0.79622277    -0.54200
C865        C  0.31291523  0.68461721  0.79764029     0.09000
C866        C  0.30197158  0.70814400  0.76817447     0.19900
C867        C  0.27703970  0.65610441  0.77163957    -0.54900
C868        C  0.28009092  0.69540794  0.77321872     0.09100
C869        C  0.30539328  0.65114667  0.73103870    -0.54400
C870        C  0.30879353  0.69039961  0.73214611     0.09700
H871        H  0.31555729  0.62441786  0.81527034     0.14200
H872        H  0.30463737  0.74003257  0.76919638    -0.00100
H873        H  0.26236703  0.64347003  0.77424477     0.14500
H874        H  0.30920796  0.63412310  0.70767251     0.14300
C875        C  0.66538649  0.61750472  0.71941897     0.86100
C876        C  0.65149905  0.63305960  0.74846209    -0.54200
C877        C  0.64859082  0.67215513  0.74603377     0.09000
C878        C  0.66020603  0.69260938  0.71451511     0.19900
C879        C  0.65683200  0.63139385  0.68331444    -0.54900
C880        C  0.65412853  0.67067613  0.68046318     0.09100
C881        C  0.68453262  0.64211749  0.72262347    -0.54400
C882        C  0.68190250  0.68158022  0.72028620     0.09700
H883        H  0.64487430  0.61446624  0.76977969     0.14200
H884        H  0.65776715  0.72437239  0.71264162    -0.00100
H885        H  0.65305433  0.61155118  0.66202867     0.14500
H886        H  0.69903961  0.63006125  0.72510679     0.14300
In887      In  0.58565775  0.82318531  0.46444638     1.36900
C888        C  0.60279307  0.79370626  0.90629842     0.77200
O889        O  0.57821373  0.88524756  0.95116098    -0.61300
O890        O  0.60484973  0.87421598  0.47831294    -0.52200
C891        C  0.54645853  0.81346070  0.46605316     0.69800
O892        O  0.55619393  0.82168411  0.93744813    -0.47000
C893        C  0.60111592  0.79042726  0.52316687     0.74500
O894        O  0.58983026  0.77520042  0.92508104    -0.58900
O895        O  0.59068331  0.82037010  0.52409769    -0.49000
O896        O  0.60696401  0.82715486  0.91745298    -0.55300
C897        C  0.59337650  0.89925760  0.96553046     0.84700
O898        O  0.55689111  0.80857556  0.49360080    -0.57200
O899        O  0.60326849  0.77657985  0.49209900    -0.60500
In900      In  0.39125688  0.81913326  0.50989031     1.36900
C901        C  0.37270881  0.77966929  0.56429726     0.77200
O902        O  0.39220357  0.87932496  0.48483390    -0.61300
O903        O  0.39126833  0.87364559  0.04205484    -0.52200
C904        C  0.43042597  0.81121320  0.00654563     0.69800
O905        O  0.42077100  0.81185170  0.53595483    -0.47000
C906        C  0.37014041  0.79432761  0.95420788     0.74500
O907        O  0.36757172  0.81301236  0.55338815    -0.58900
O908        O  0.36649646  0.82526189  0.97042533    -0.49000
O909        O  0.38722357  0.76641559  0.54708408    -0.55300
C910        C  0.39199870  0.89628398  0.51463414     0.84700
O911        O  0.41993700  0.81328624  0.97877560    -0.57200
O912        O  0.38456649  0.77588968  0.96668228    -0.60500
C913        C  0.45219506  0.80906420  0.00486299    -0.05700
C914        C  0.46296512  0.80500303  0.53683204    -0.05600
C915        C  0.48356162  0.80405330  0.53554563    -0.23700
C916        C  0.49376851  0.80734929  0.50224613     0.18500
C917        C  0.48309009  0.81154741  0.96991880     0.15700
C918        C  0.46238547  0.81222823  0.97141572    -0.18800
C919        C  0.49330515  0.81530170  0.93665242    -0.20600
C920        C  0.51391137  0.81521202  0.93542458    -0.13200
C921        C  0.52466906  0.81116205  0.46738003     0.03500
C922        C  0.51447515  0.80695174  0.50076029    -0.25300
H923        H  0.45545484  0.80266162  0.56292536     0.08600
H924        H  0.49150526  0.80094243  0.56061286     0.12200
H925        H  0.45422969  0.81563113  0.94659653     0.12100
H926        H  0.48536534  0.81861789  0.91160194     0.11900
H927        H  0.52144202  0.81865763  0.90941819     0.12400
H928        H  0.52264288  0.80409832  0.52561849     0.14400
C929        C  0.63623768  0.69235283  0.77291507    -0.05700
C930        C  0.61942580  0.67357820  0.78857130    -0.05600
C931        C  0.60911282  0.69027817  0.81703804    -0.23700
C932        C  0.61542393  0.72608120  0.83037892     0.18500
C933        C  0.63183832  0.74593764  0.81390134     0.15700
C934        C  0.64205791  0.72906799  0.78512093    -0.18800
C935        C  0.63811923  0.78179384  0.82723254    -0.20600
C936        C  0.62848401  0.79747792  0.85703648    -0.13200
C937        C  0.61244062  0.77755353  0.87406587     0.03500
C938        C  0.60584607  0.74198553  0.86035226    -0.25300
H939        H  0.61440259  0.64559311  0.77913902     0.08600
H940        H  0.59644632  0.67483293  0.82906408     0.12200
H941        H  0.65509861  0.74363243  0.77354464     0.12100
H942        H  0.65064181  0.79745747  0.81492431     0.11900
H943        H  0.63377169  0.82501006  0.86709418     0.12400
H944        H  0.59340379  0.72651525  0.87319073     0.14400
C945        C  0.64639863  0.68990511  0.64733577    -0.05700
C946        C  0.65083500  0.67526083  0.61300844    -0.05600
C947        C  0.64308819  0.69235874  0.58180662    -0.23700
C948        C  0.63080616  0.72452524  0.58431965     0.18500
C949        C  0.62659166  0.74004874  0.61859816     0.15700
C950        C  0.63439568  0.72263299  0.64986769    -0.18800
C951        C  0.61444754  0.77246976  0.62104358    -0.20600
C952        C  0.60630691  0.78898409  0.58989474    -0.13200
C953        C  0.61009462  0.77326250  0.55581777     0.03500
C954        C  0.62252826  0.74119652  0.55317023    -0.25300
H955        H  0.66040875  0.65061218  0.61019065     0.08600
H956        H  0.64662409  0.68029387  0.55574374     0.12200
H957        H  0.63068490  0.73398013  0.67614470     0.12100
H958        H  0.61113019  0.78487810  0.64705073     0.11900
H959        H  0.59686426  0.81387498  0.59252660     0.12400
H960        H  0.62566792  0.72907860  0.52694881     0.14400
C961        C  0.35840685  0.78075937  0.92333571    -0.05700
C962        C  0.34307447  0.80343394  0.90941913    -0.05600
C963        C  0.33155255  0.79005306  0.88104669    -0.23700
C964        C  0.33508746  0.75362598  0.86614792     0.18500
C965        C  0.35071553  0.73100699  0.87956014     0.15700
C966        C  0.36228517  0.74472805  0.90786597    -0.18800
C967        C  0.35436555  0.69469900  0.86481899    -0.20600
C968        C  0.34237869  0.68037832  0.83773233    -0.13200
C969        C  0.32634755  0.70186906  0.82478963     0.03500
C970        C  0.32303870  0.73900753  0.83872036    -0.25300
H971        H  0.33986397  0.83142943  0.92071733     0.08600
H972        H  0.31970553  0.80794749  0.87112460     0.12200
H973        H  0.37410995  0.72702962  0.91823976     0.12100
H974        H  0.36641079  0.67714804  0.87447011     0.11900
H975        H  0.34575140  0.65227045  0.82688679     0.12400
H976        H  0.31072069  0.75591332  0.82929547     0.14400
C977        C  0.36265365  0.75799843  0.59478210    -0.05700
C978        C  0.36856500  0.72022882  0.60464372    -0.05600
C979        C  0.35918200  0.69953231  0.63335883    -0.23700
C980        C  0.34377273  0.71631748  0.65293827     0.18500
C981        C  0.33782021  0.75442354  0.64353992     0.15700
C982        C  0.34721428  0.77494840  0.61442627    -0.18800
C983        C  0.32266793  0.77141722  0.66361354    -0.20600
C984        C  0.31348562  0.75086773  0.69265196    -0.13200
C985        C  0.31898237  0.71271134  0.70186548     0.03500
C986        C  0.33427923  0.69568798  0.68182670    -0.25300
H987        H  0.38043851  0.70657301  0.59002501     0.08600
H988        H  0.36399692  0.67039750  0.64026576     0.12200
H989        H  0.34259344  0.80415482  0.60722824     0.12100
H990        H  0.31794907  0.80067613  0.65694302     0.11900
H991        H  0.30189891  0.76478926  0.70746693     0.12400
H992        H  0.33903569  0.66658609  0.68904037     0.14400
C993        C  0.39242205  0.93907868  0.51712121    -0.05700
C994        C  0.39211459  0.95643824  0.55108700    -0.05600
C995        C  0.39197786  0.99691242  0.55359849    -0.23700
C996        C  0.39210934  0.02068573  0.52216241     0.18500
C997        C  0.39258163  0.00352945  0.48782242     0.15700
C998        C  0.39282627  0.96284254  0.48552712    -0.18800
C999        C  0.39263856  0.02737616  0.45640190    -0.20600
C1000       C  0.39222648  0.06786887  0.95897710    -0.13200
C1001       C  0.39189867  0.08512686  0.99300630     0.03500
C1002       C  0.39180612  0.06131285  0.02450300    -0.25300
H1003       H  0.39184832  0.93868059  0.57576893     0.08600
H1004       H  0.39166068  0.00960683  0.58012187     0.12200
H1005       H  0.39309517  0.94970257  0.45918249     0.12100
H1006       H  0.39298636  0.01472860  0.42985898     0.11900
H1007       H  0.39239873  0.08571815  0.93435458     0.12400
H1008       H  0.39155811  0.07439114  0.05087816     0.14400
C1009       C  0.59704368  0.94142828  0.96831166    -0.05700
C1010       C  0.61244632  0.95530070  0.98966573    -0.05600
C1011       C  0.61485402  0.99513660  0.99519342    -0.23700
C1012       C  0.60187779  0.02168488  0.47944681     0.18500
C1013       C  0.58674945  0.00803438  0.45688795     0.15700
C1014       C  0.58445767  0.96802188  0.45140767    -0.18800
C1015       C  0.57379442  0.03452689  0.44106163    -0.20600
C1016       C  0.57534142  0.07402389  0.44857397    -0.13200
C1017       C  0.58988139  0.08769400  0.47196024     0.03500
C1018       C  0.60339499  0.06147790  0.48673375    -0.25300
H1019       H  0.62232799  0.93524426  0.00290232     0.08600
H1020       H  0.62657943  0.00508033  0.01241789     0.12200
H1021       H  0.57257736  0.95754047  0.43477091     0.12100
H1022       H  0.56219628  0.02460418  0.42354167     0.11900
H1023       H  0.56484631  0.09378884  0.43668447     0.12400
H1024       H  0.61472536  0.07183839  0.50463142     0.14400
C1025       C  0.45564467  0.21511047  0.49490195    -0.05700
C1026       C  0.46489926  0.22102565  0.96083202    -0.05600
C1027       C  0.48539667  0.22403006  0.95761840    -0.23700
C1028       C  0.49707265  0.22093483  0.98841408     0.18500
C1029       C  0.48799139  0.21516579  0.52292254     0.15700
C1030       C  0.46729614  0.21247453  0.52598947    -0.18800
C1031       C  0.49981660  0.21169674  0.55360709    -0.20600
C1032       C  0.52041494  0.21303247  0.55000373    -0.13200
C1033       C  0.52952572  0.21819861  0.01571783     0.03500
C1034       C  0.51770002  0.22270526  0.98509566    -0.25300
H1035       H  0.45625775  0.22327147  0.93652220     0.08600
H1036       H  0.49212660  0.22840446  0.93097050     0.12200
H1037       H  0.46030433  0.20789595  0.55240300     0.12100
H1038       H  0.49315007  0.20729995  0.58029855     0.11900
H1039       H  0.52922417  0.20932826  0.57396744     0.12400
H1040       H  0.52454800  0.22646342  0.95846630     0.14400
C1041       C  0.68427085  0.43094692  0.74239190    -0.05700
C1042       C  0.70174095  0.45320098  0.74639987    -0.05600
C1043       C  0.70162392  0.49374439  0.74290877    -0.23700
C1044       C  0.68413455  0.51305423  0.73521499     0.18500
C1045       C  0.66644882  0.49134493  0.73192158     0.15700
C1046       C  0.66657647  0.45070492  0.73606440    -0.18800
C1047       C  0.64897648  0.51058476  0.72401962    -0.20600
C1048       C  0.64907331  0.55101938  0.71939924    -0.13200
C1049       C  0.66658384  0.57328185  0.72276944     0.03500
C1050       C  0.68412617  0.55371189  0.73079205    -0.25300
H1051       H  0.71568836  0.44011456  0.75204941     0.08600
H1052       H  0.71531946  0.50999984  0.74584483     0.12200
H1053       H  0.65295156  0.43413703  0.73325781     0.12100
H1054       H  0.63524545  0.49439156  0.72134039     0.11900
H1055       H  0.63530757  0.56519996  0.71355072     0.12400
H1056       H  0.69785539  0.56932986  0.73411909     0.14400
C1057       C  0.66494457  0.31158905  0.67561890    -0.05700
C1058       C  0.66958768  0.32603157  0.64045897    -0.05600
C1059       C  0.66028789  0.31087115  0.61044269    -0.23700
C1060       C  0.64609059  0.28097466  0.61495046     0.18500
C1061       C  0.64178328  0.26509843  0.64998523     0.15700
C1062       C  0.65135613  0.28035934  0.68016267    -0.18800
C1063       C  0.62759805  0.23497180  0.65419546    -0.20600
C1064       C  0.61749687  0.22138436  0.62414789    -0.13200
C1065       C  0.62129169  0.23789530  0.58945612     0.03500
C1066       C  0.63583316  0.26734945  0.58503769    -0.25300
H1067       H  0.68027908  0.34957921  0.63619678     0.08600
H1068       H  0.66391311  0.32310298  0.58375990     0.12200
H1069       H  0.64760570  0.26914870  0.70716169     0.12100
H1070       H  0.62411843  0.22229978  0.68076493     0.11900
H1071       H  0.60639457  0.19855087  0.62815509     0.12400
H1072       H  0.63900870  0.28004090  0.55833306     0.14400
C1073       C  0.65792303  0.30645314  0.80305595    -0.05700
C1074       C  0.66453331  0.26937147  0.81377816    -0.05600
C1075       C  0.65571162  0.24899827  0.84325842    -0.23700
C1076       C  0.64025111  0.26549258  0.86289925     0.18500
C1077       C  0.63334570  0.30254614  0.85219390     0.15700
C1078       C  0.64204671  0.32252734  0.82220269    -0.18800
C1079       C  0.61801847  0.31929522  0.87198406    -0.20600
C1080       C  0.60966873  0.29964007  0.90225237    -0.13200
C1081       C  0.61640613  0.26279969  0.91317283     0.03500
C1082       C  0.63170624  0.24578877  0.89325576    -0.25300
H1083       H  0.67697503  0.25646746  0.80023813     0.08600
H1084       H  0.66125600  0.22067691  0.85113810     0.12200
H1085       H  0.63651496  0.35075591  0.81402750     0.12100
H1086       H  0.61255754  0.34770525  0.86417884     0.11900
H1087       H  0.59785876  0.31325888  0.91707824     0.12400
H1088       H  0.63699537  0.21733069  0.90140447     0.14400
C1089       C  0.30874004  0.44472018  0.75195887    -0.05700
C1090       C  0.32694456  0.46515288  0.75152556    -0.05600
C1091       C  0.32778378  0.50556234  0.75365180    -0.23700
C1092       C  0.31041483  0.52657325  0.75686897     0.18500
C1093       C  0.29202933  0.50671001  0.75780394     0.15700
C1094       C  0.29124821  0.46603058  0.75525608    -0.18800
C1095       C  0.27469783  0.52787930  0.76150483    -0.20600
C1096       C  0.27555378  0.56834957  0.76427379    -0.13200
C1097       C  0.29385003  0.58865832  0.76334880     0.03500
C1098       C  0.31118894  0.56713554  0.75942901    -0.25300
H1099       H  0.34065538  0.44958627  0.74961522     0.08600
H1100       H  0.34204277  0.52033327  0.75310201     0.12200
H1101       H  0.27698591  0.45168503  0.75669196     0.12100
H1102       H  0.26043088  0.51313030  0.76223564     0.11900
H1103       H  0.26170524  0.58293947  0.76672852     0.12400
H1104       H  0.32538713  0.58220769  0.75843606     0.14400
C1105       C  0.33599043  0.32841274  0.68950293    -0.05700
C1106       C  0.35295248  0.34805422  0.67544343    -0.05600
C1107       C  0.36422194  0.33220722  0.64776491    -0.23700
C1108       C  0.35873591  0.29641770  0.63338893     0.18500
C1109       C  0.34197341  0.27590873  0.64767446     0.15700
C1110       C  0.33087228  0.29179046  0.67598634    -0.18800
C1111       C  0.33638371  0.24029308  0.63282095    -0.20600
C1112       C  0.34713356  0.22550482  0.60376274    -0.13200
C1113       C  0.36377327  0.24583951  0.58935688     0.03500
C1114       C  0.36959723  0.28113593  0.60460461    -0.25300
H1115       H  0.35761041  0.37579417  0.68594136     0.08600
H1116       H  0.37711153  0.34819116  0.63732397     0.12200
H1117       H  0.31796277  0.27620614  0.68650398     0.12100
H1118       H  0.32356433  0.22414897  0.64334415     0.11900
H1119       H  0.34239389  0.19818801  0.59247859     0.12400
H1120       H  0.38237589  0.29711755  0.59363503     0.14400
C1121       C  0.32904891  0.32049184  0.81394067    -0.05700
C1122       C  0.32096739  0.28390782  0.82438473    -0.05600
C1123       C  0.32868172  0.26276032  0.85353610    -0.23700
C1124       C  0.34468263  0.27779875  0.87258569     0.18500
C1125       C  0.35286038  0.31469670  0.86239287     0.15700
C1126       C  0.34498507  0.33579139  0.83320904    -0.18800
C1127       C  0.36887958  0.32973051  0.88138216    -0.20600
C1128       C  0.37689486  0.30816879  0.90996335    -0.13200
C1129       C  0.36900014  0.27128732  0.92005771     0.03500
C1130       C  0.35277172  0.25639244  0.90139231    -0.25300
H1131       H  0.30847253  0.27187856  0.81035207     0.08600
H1132       H  0.32217712  0.23459914  0.86110233     0.12200
H1133       H  0.35146391  0.36384633  0.82515083     0.12100
H1134       H  0.37530331  0.35800150  0.87395311     0.11900
H1135       H  0.38939302  0.32021787  0.92398201     0.12400
H1136       H  0.34657286  0.22796228  0.90899160     0.14400
C1137       C  0.02528006  0.72693908  0.02026935    -0.05700
C1138       C  0.01596403  0.75270591  0.54369554    -0.05600
C1139       C  0.99540511  0.75597490  0.54403543    -0.23700
C1140       C  0.98388892  0.73360546  0.52085720     0.18500
C1141       C  0.99326896  0.70799588  0.99696512     0.15700
C1142       C  0.01380546  0.70473392  0.99696466    -0.18800
C1143       C  0.98197098  0.68560392  0.97369252    -0.20600
C1144       C  0.96148991  0.68778705  0.97453423    -0.13200
C1145       C  0.95187750  0.71236357  0.49867960     0.03500
C1146       C  0.96318353  0.73576271  0.52147895    -0.25300
H1147       H  0.02455741  0.77007281  0.56192674     0.08600
H1148       H  0.98851990  0.77578490  0.56252909     0.12200
H1149       H  0.02086194  0.68481035  0.97875184     0.12100
H1150       H  0.98895917  0.66593386  0.95518056     0.11900
H1151       H  0.95312133  0.66947617  0.95674219     0.12400
H1152       H  0.95589643  0.75471188  0.54028164     0.14400
C1153       C  0.76268598  0.78283598  0.74994361    -0.05700
C1154       C  0.76395054  0.74525694  0.76546648    -0.05600
C1155       C  0.74844851  0.71825089  0.76274698    -0.23700
C1156       C  0.73138583  0.72810287  0.74401607     0.18500
C1157       C  0.73004406  0.76539230  0.72734570     0.15700
C1158       C  0.74566912  0.79257360  0.73045297    -0.18800
C1159       C  0.71305419  0.77481175  0.70807398    -0.20600
C1160       C  0.69751875  0.74762841  0.70558345    -0.13200
C1161       C  0.69853610  0.71057539  0.72262900     0.03500
C1162       C  0.71563723  0.70124765  0.74191968    -0.25300
H1163       H  0.77669989  0.73690650  0.78061117     0.08600
H1164       H  0.74976909  0.68968446  0.77556103     0.12200
H1165       H  0.74460442  0.82115658  0.71756803     0.12100
H1166       H  0.71180286  0.80315423  0.69480084     0.11900
H1167       H  0.68487077  0.75562248  0.68979240     0.12400
H1168       H  0.71668749  0.67330095  0.75594767     0.14400
C1169       C  0.86472884  0.75625074  0.92176478    -0.05700
C1170       C  0.86968684  0.79517893  0.91249504    -0.05600
C1171       C  0.86027832  0.81462281  0.88413967    -0.23700
C1172       C  0.84571062  0.79551289  0.86444081     0.18500
C1173       C  0.84085411  0.75611114  0.87291350     0.15700
C1174       C  0.85038795  0.73668965  0.90153764    -0.18800
C1175       C  0.82640614  0.73706770  0.85281881    -0.20600
C1176       C  0.81655313  0.75713480  0.82523010    -0.13200
C1177       C  0.82078451  0.79669532  0.81734843     0.03500
C1178       C  0.83574864  0.81539794  0.83676161    -0.25300
H1179       H  0.88070206  0.81084076  0.92752872     0.08600
H1180       H  0.86424207  0.84479857  0.87789999     0.12200
H1181       H  0.84649840  0.70658202  0.90829428     0.12100
H1182       H  0.82253856  0.70677271  0.85870089     0.11900
H1183       H  0.80529981  0.74181714  0.81079561     0.12400
H1184       H  0.83968267  0.84555985  0.83042969     0.14400
C1185       C  0.82026139  0.81253469  0.69122187    -0.05700
C1186       C  0.81737822  0.83046233  0.65708479    -0.05600
C1187       C  0.82674582  0.81677881  0.62622856    -0.23700
C1188       C  0.83923434  0.78492318  0.62887373     0.18500
C1189       C  0.84228535  0.76654097  0.66300235     0.15700
C1190       C  0.83267773  0.78034429  0.69398557    -0.18800
C1191       C  0.85501796  0.73490974  0.66549422    -0.20600
C1192       C  0.86478359  0.72198112  0.63455629    -0.13200
C1193       C  0.86180673  0.74021282  0.60063471     0.03500
C1194       C  0.84883703  0.77141024  0.59792979    -0.25300
H1195       H  0.80757106  0.85480951  0.65407010     0.08600
H1196       H  0.82420917  0.83112639  0.60028740     0.12200
H1197       H  0.83514994  0.76656003  0.72020792     0.12100
H1198       H  0.85754766  0.72040932  0.69136142     0.11900
H1199       H  0.87466495  0.69768468  0.63714116     0.12400
H1200       H  0.84650161  0.78566127  0.57184826     0.14400
C1201       C  0.26342785  0.72224818  0.77879625    -0.05700
C1202       C  0.24735623  0.71088730  0.80155481    -0.05600
C1203       C  0.23063090  0.73386420  0.80381644    -0.23700
C1204       C  0.22963619  0.76863354  0.78329096     0.18500
C1205       C  0.24595019  0.78099541  0.76130317     0.15700
C1206       C  0.26277779  0.75790262  0.75948719    -0.18800
C1207       C  0.24499540  0.81588613  0.74090719    -0.20600
C1208       C  0.22795902  0.83809766  0.74200662    -0.13200
C1209       C  0.21155254  0.82574499  0.76336147     0.03500
C1210       C  0.21255129  0.79105203  0.78410528    -0.25300
H1211       H  0.24762404  0.68391165  0.81738054     0.08600
H1212       H  0.21835860  0.72411201  0.82113507     0.12200
H1213       H  0.27495765  0.76702860  0.74196080     0.12100
H1214       H  0.25734439  0.82581719  0.72386468     0.11900
H1215       H  0.22746687  0.86468088  0.72562658     0.12400
H1216       H  0.20018741  0.78174366  0.80118538     0.14400
C1217       C  0.11403724  0.75644560  0.60908728    -0.05700
C1218       C  0.10689074  0.74679744  0.64418937    -0.05600
C1219       C  0.11566034  0.76283726  0.67449697    -0.23700
C1220       C  0.13165917  0.78908530  0.67025424     0.18500
C1221       C  0.13884247  0.79930292  0.63501759     0.15700
C1222       C  0.13008560  0.78273886  0.60473232    -0.18800
C1223       C  0.15450667  0.82632056  0.63064964    -0.20600
C1224       C  0.16278789  0.84345835  0.66083078    -0.13200
C1225       C  0.15583517  0.83330780  0.69588575     0.03500
C1226       C  0.14041948  0.80573359  0.70054179    -0.25300
H1227       H  0.09447530  0.72679356  0.64823138     0.08600
H1228       H  0.10986401  0.75485355  0.70124034     0.12200
H1229       H  0.13561082  0.79068700  0.57777912     0.12100
H1230       H  0.16016949  0.83459663  0.60388303     0.11900
H1231       H  0.17467098  0.86472498  0.65686715     0.12400
H1232       H  0.13488469  0.79823824  0.72759790     0.14400
C1233       C  0.10813151  0.77376257  0.92904096    -0.05700
C1234       C  0.10063702  0.81015269  0.91862327    -0.05600
C1235       C  0.10885145  0.83115023  0.88893436    -0.23700
C1236       C  0.12461492  0.81594654  0.86906757     0.18500
C1237       C  0.13176920  0.77876914  0.87858159     0.15700
C1238       C  0.12353575  0.75797706  0.90853759    -0.18800
C1239       C  0.14723388  0.76325283  0.85827855    -0.20600
C1240       C  0.15609029  0.78500208  0.82971717    -0.13200
C1241       C  0.14985124  0.82287962  0.82111639     0.03500
C1242       C  0.13360366  0.83761846  0.84035547    -0.25300
H1243       H  0.08868796  0.82274592  0.93390474     0.08600
H1244       H  0.10308066  0.85951329  0.88186519     0.12200
H1245       H  0.12924853  0.72967730  0.91609130     0.12100
H1246       H  0.15272915  0.73454460  0.86488807     0.11900
H1247       H  0.16818389  0.77232260  0.81521201     0.12400
H1248       H  0.12800448  0.86611331  0.83331801     0.14400
C1249       C  0.08662358  0.44661049  0.03200041    -0.05700
C1250       C  0.08448765  0.46335562  0.56608018    -0.05600
C1251       C  0.08530528  0.50374720  0.56946721    -0.23700
C1252       C  0.08839325  0.52818845  0.53883611     0.18500
C1253       C  0.09065003  0.51171111  0.00438567     0.15700
C1254       C  0.08969834  0.47102687  0.00116227    -0.18800
C1255       C  0.09376227  0.53626043  0.97378798    -0.20600
C1256       C  0.09430257  0.57671842  0.97722281    -0.13200
C1257       C  0.09182597  0.59335780  0.51130336     0.03500
C1258       C  0.08906622  0.56882347  0.54208130    -0.25300
H1259       H  0.08210129  0.44515809  0.59021123     0.08600
H1260       H  0.08352128  0.51586337  0.59606763     0.12200
H1261       H  0.09144555  0.45840468  0.97475444     0.12100
H1262       H  0.09557860  0.52420278  0.94717042     0.11900
H1263       H  0.09640230  0.59504191  0.95309787     0.12400
H1264       H  0.08704760  0.58134198  0.56847649     0.14400
C1265       C  0.88233722  0.43859530  0.49292788    -0.05700
C1266       C  0.88063415  0.45844844  0.45945215    -0.05600
C1267       C  0.87975685  0.49899283  0.45769079    -0.23700
C1268       C  0.88061387  0.52034652  0.48938955     0.18500
C1269       C  0.88195068  0.50068862  0.02335654     0.15700
C1270       C  0.88272334  0.45988434  0.02491968    -0.18800
C1271       C  0.88298756  0.52225961  0.05499160    -0.20600
C1272       C  0.88340875  0.56297198  0.05281640    -0.13200
C1273       C  0.88254299  0.58261153  0.01903606     0.03500
C1274       C  0.88071650  0.56108965  0.48752121    -0.25300
H1275       H  0.88030793  0.44263021  0.43451199     0.08600
H1276       H  0.87873141  0.51367512  0.43147857     0.12200
H1277       H  0.88399910  0.44478061  0.05089685     0.12100
H1278       H  0.88394548  0.50768837  0.08126490     0.11900
H1279       H  0.88475270  0.57909030  0.07746158     0.12400
H1280       H  0.88008757  0.57604761  0.46135435     0.14400
C1281       C  0.02342942  0.31354767  0.52551596    -0.05700
C1282       C  0.01287514  0.31421673  0.55856913    -0.05600
C1283       C  0.99225660  0.31305838  0.55933307    -0.23700
C1284       C  0.98178660  0.31125020  0.52702334     0.18500
C1285       C  0.99223233  0.30980394  0.99365230     0.15700
C1286       C  0.01297130  0.31090786  0.99311435    -0.18800
C1287       C  0.98173647  0.30791038  0.96135233    -0.20600
C1288       C  0.96111263  0.30816098  0.96203034    -0.13200
C1289       C  0.95060983  0.31037889  0.99498852     0.03500
C1290       C  0.96107255  0.31150876  0.52747849    -0.25300
H1291       H  0.02058000  0.31619885  0.58389071     0.08600
H1292       H  0.98450427  0.31407799  0.58517081     0.12200
H1293       H  0.02094576  0.31033815  0.96745852     0.12100
H1294       H  0.98948024  0.30668509  0.93552421     0.11900
H1295       H  0.95337479  0.30723020  0.93667517     0.12400
H1296       H  0.95312046  0.31311463  0.55308599     0.14400
C1297       C  0.71845387  0.29947894  0.75317996    -0.05700
C1298       C  0.73383304  0.31060897  0.77604487    -0.05600
C1299       C  0.75034846  0.28737794  0.78027432    -0.23700
C1300       C  0.75178787  0.25246312  0.76182719     0.18500
C1301       C  0.73614781  0.24037894  0.73965882     0.15700
C1302       C  0.71959184  0.26392475  0.73549840    -0.18800
C1303       C  0.73747705  0.20521152  0.72155188    -0.20600
C1304       C  0.75423665  0.18250464  0.72496376    -0.13200
C1305       C  0.77001092  0.19462426  0.74638748     0.03500
C1306       C  0.76866018  0.22960647  0.76491498    -0.25300
H1307       H  0.73310688  0.33734506  0.79081521     0.08600
H1308       H  0.76206076  0.29689027  0.79772883     0.12200
H1309       H  0.70792074  0.25508053  0.71766391     0.12100
H1310       H  0.72564269  0.19543645  0.70449565     0.11900
H1311       H  0.75502959  0.15572788  0.71024825     0.12400
H1312       H  0.78063919  0.23882867  0.78192992     0.14400
C1313       C  0.79246992  0.92020661  0.76409791    -0.05700
C1314       C  0.77415672  0.93893079  0.76291558    -0.05600
C1315       C  0.77321954  0.97950656  0.76216946    -0.23700
C1316       C  0.79049277  0.00244004  0.76250268     0.18500
C1317       C  0.80890881  0.98431234  0.76485366     0.15700
C1318       C  0.80977058  0.94350671  0.76594619    -0.18800
C1319       C  0.82616825  0.00731003  0.76511808    -0.20600
C1320       C  0.82516083  0.04788810  0.76233002    -0.13200
C1321       C  0.80690282  0.06658532  0.75943686     0.03500
C1322       C  0.78956029  0.04317889  0.75989806    -0.25300
H1323       H  0.76037870  0.92301910  0.76177066     0.08600
H1324       H  0.75892349  0.99298294  0.76062343     0.12200
H1325       H  0.82400623  0.92968972  0.76699529     0.12100
H1326       H  0.84047196  0.99392356  0.76694758     0.11900
H1327       H  0.83876355  0.06490991  0.76213806     0.12400
H1328       H  0.77518773  0.05570330  0.75778686     0.14400
C1329       C  0.85820227  0.27467830  0.58635371    -0.05700
C1330       C  0.84108164  0.29230560  0.59956099    -0.05600
C1331       C  0.83043985  0.27552841  0.62905992    -0.23700
C1332       C  0.83665521  0.24064023  0.64556354     0.18500
C1333       C  0.85405050  0.22318965  0.63271309     0.15700
C1334       C  0.86473828  0.24041242  0.60349407    -0.18800
C1335       C  0.86032409  0.18831647  0.64881418    -0.20600
C1336       C  0.84921817  0.17021042  0.67678009    -0.13200
C1337       C  0.83163364  0.18662222  0.68938302     0.03500
C1338       C  0.82561255  0.22238255  0.67407549    -0.25300
H1339       H  0.83584120  0.31887985  0.58689795     0.08600
H1340       H  0.81718536  0.28945735  0.63855027     0.12200
H1341       H  0.87794906  0.22658709  0.59359096     0.12100
H1342       H  0.87371689  0.17475232  0.63947975     0.11900
H1343       H  0.85449124  0.14329472  0.68870283     0.12400
H1344       H  0.81205684  0.23530425  0.68343735     0.14400
C1345       C  0.82896485  0.19523707  0.81046885    -0.05700
C1346       C  0.83745542  0.23140382  0.79931914    -0.05600
C1347       C  0.84748972  0.25455118  0.82377805    -0.23700
C1348       C  0.84962154  0.24171457  0.85977653     0.18500
C1349       C  0.84166040  0.20499292  0.87111155     0.15700
C1350       C  0.83118380  0.18233429  0.84665355    -0.18800
C1351       C  0.84428189  0.19150943  0.90679988    -0.20600
C1352       C  0.85448194  0.21439024  0.93117446    -0.13200
C1353       C  0.86198816  0.25140932  0.92051333     0.03500
C1354       C  0.85957148  0.26490547  0.88464072    -0.25300
H1355       H  0.83672558  0.24181388  0.77151663     0.08600
H1356       H  0.85373699  0.28236793  0.81442777     0.12200
H1357       H  0.82463366  0.15485764  0.85611195     0.12100
H1358       H  0.83840388  0.16330535  0.91590364     0.11900
H1359       H  0.85618982  0.20337389  0.95866136     0.12400
H1360       H  0.86548419  0.29327778  0.87607918     0.14400
C1361       C  0.20905820  0.23912986  0.77200760    -0.05700
C1362       C  0.20822937  0.27324836  0.79191111    -0.05600
C1363       C  0.22391254  0.30025972  0.79019636    -0.23700
C1364       C  0.24061243  0.29347809  0.76847232     0.18500
C1365       C  0.24122934  0.25984729  0.74737733     0.15700
C1366       C  0.22538311  0.23322115  0.74894540    -0.18800
C1367       C  0.25790994  0.25283893  0.72578878    -0.20600
C1368       C  0.27409257  0.27847951  0.72578947    -0.13200
C1369       C  0.27374740  0.31178363  0.74686135     0.03500
C1370       C  0.25684550  0.31933114  0.76794794    -0.25300
H1371       H  0.19577535  0.27846666  0.80966549     0.08600
H1372       H  0.22315981  0.32602065  0.80640341     0.12200
H1373       H  0.22591504  0.20752278  0.73259592     0.12100
H1374       H  0.25856971  0.22722605  0.70935862     0.11900
H1375       H  0.28678198  0.27239297  0.70903609     0.12400
H1376       H  0.25652606  0.34477200  0.78465389     0.14400
C1377       C  0.17251408  0.95217469  0.76608045    -0.05700
C1378       C  0.15370954  0.96895058  0.76526644    -0.09600
C1379       C  0.15146504  0.00912435  0.76697889    -0.23700
C1380       C  0.16800838  0.03372361  0.76935829     0.18500
C1381       C  0.18698275  0.01760621  0.77023877     0.15700
C1382       C  0.18917288  0.97707712  0.76865339    -0.18800
C1383       C  0.20349385  0.04234634  0.77266671    -0.20600
C1384       C  0.20127628  0.08263737  0.77396943    -0.13200
C1385       C  0.18239399  0.09933709  0.77276870     0.03500
C1386       C  0.16584916  0.07418927  0.77071839    -0.25300
H1387       H  0.14061610  0.95065637  0.76328964     0.08600
H1388       H  0.13676841  0.02094545  0.76628046     0.12200
H1389       H  0.20387958  0.96573481  0.76930150     0.12100
H1390       H  0.21819027  0.03052914  0.77357707     0.11900
H1391       H  0.21458964  0.09982911  0.77618022     0.12400
H1392       H  0.15120691  0.08633227  0.77006279     0.14400
C1393       C  0.15360956  0.21967386  0.71272262    -0.05700
C1394       C  0.15877953  0.25893764  0.70513454    -0.05600
C1395       C  0.15001931  0.27964974  0.67678393    -0.23700
C1396       C  0.13596419  0.26148626  0.65525217     0.18500
C1397       C  0.13070936  0.22198199  0.66240186     0.15700
C1398       C  0.13951824  0.20137872  0.69105582    -0.18800
C1399       C  0.11665111  0.20379675  0.64084878    -0.20600
C1400       C  0.10773858  0.22462756  0.61271926    -0.13200
C1401       C  0.11275369  0.26397858  0.60550860     0.03500
C1402       C  0.12702236  0.28218455  0.62679783    -0.25300
H1403       H  0.16994461  0.27361897  0.72057150     0.08600
H1404       H  0.15433204  0.30983979  0.67157580     0.12200
H1405       H  0.13519350  0.17127845  0.69670803     0.12100
H1406       H  0.11245845  0.17351608  0.64587149     0.11900
H1407       H  0.09682800  0.20994319  0.59665719     0.12400
H1408       H  0.13100743  0.31253947  0.62150470     0.14400
C1409       C  0.11746391  0.28786594  0.93663432    -0.05700
C1410       C  0.13338861  0.31048922  0.92234557    -0.05600
C1411       C  0.14514600  0.29684301  0.89406209    -0.23700
C1412       C  0.14128435  0.26015708  0.87969198     0.18500
C1413       C  0.12526491  0.23724722  0.89381765     0.15700
C1414       C  0.11339815  0.25132098  0.92196368    -0.18800
C1415       C  0.12149675  0.20042139  0.87982070    -0.20600
C1416       C  0.13356336  0.18622149  0.85235496    -0.13200
C1417       C  0.14961245  0.20857880  0.83810277     0.03500
C1418       C  0.15326284  0.24580587  0.85175112    -0.25300
H1419       H  0.13682137  0.33874747  0.93317460     0.08600
H1420       H  0.15735804  0.31484322  0.88364716     0.12200
H1421       H  0.10120537  0.23354029  0.93283468     0.12100
H1422       H  0.10925048  0.18249632  0.89021189     0.11900
H1423       H  0.13014502  0.15778467  0.84192088     0.12400
H1424       H  0.16562707  0.26325484  0.84127404     0.14400
loop_ 
_geom_bond_atom_site_label_1 
_geom_bond_atom_site_label_2 
_geom_bond_distance 
_geom_bond_site_symmetry_2 
_ccdc_geom_bond_type 
C1            C2   1.541       .  S
C1            C7   1.534       .  S
C1            C5   1.539       .  S
C1          C673   1.530       .  S
C2            H9   1.086       .  S
C2            C3   1.371       .  D
C3            C4   1.542       .  S
C3          C681   1.491       .  S
C4            C8   1.543       .  S
C4            C6   1.536       .  S
C4           H10   1.108       .  S
C5           H11   1.080       .  S
C5            C6   1.364       .  D
C6          C649   1.481       .  S
C7           H12   1.086       .  S
C7            C8   1.367       .  D
C8          C705   1.490       .  S
C13          C14   1.537       .  S
C13          C19   1.541       .  S
C13          C17   1.537       .  S
C13         C609   1.531       .  S
C14          H21   1.086       .  S
C14          C15   1.369       .  D
C15          C16   1.539       .  S
C15         C625   1.488       .  S
C16          C20   1.538       .  S
C16          C18   1.543       .  S
C16          H22   1.107       .  S
C17          H23   1.085       .  S
C17          C18   1.371       .  D
C18         C633   1.493       .  S
C19          H24   1.080       .  S
C19          C20   1.362       .  D
C20         C593   1.482       .  S
In25         O27   2.244   1_556  S
In25         O30   2.254   1_556  S
In25         O32   2.229   1_556  S
In25         O34   2.257   1_556  S
In25        O740   2.250       .  S
In25        O748   2.267       .  S
In25        O745   2.263       .  S
In25        O749   2.243       .  S
C26          O32   1.262       .  A
C26          O34   1.264       .  A
C26         C617   1.479       .  S
O27          C35   1.259   1_554  A
O28        In737   2.250       .  S
O28         C747   1.260       .  A
C29          O36   1.258       .  A
C29         O742   1.256       .  A
C29         C577   1.480       .  S
O30         C741   1.256   1_554  A
C31          O33   1.261       .  A
C31          O37   1.259       .  A
C31         C641   1.478       .  S
O33        In737   2.263       .  S
C35         O740   1.260       .  A
C35         C553   1.475       .  S
O36        In737   2.267       .  S
O37        In737   2.243       .  S
In38         O40   2.255       .  S
In38         O43   2.262       .  S
In38         O45   2.256       .  S
In38         O47   2.251       .  S
In38        O753   2.243       .  S
In38        O761   2.253       .  S
In38        O758   2.255       .  S
In38        O762   2.254       .  S
C39          O45   1.262       .  A
C39          O47   1.261       .  A
C39         C697   1.482       .  S
O40          C48   1.262       .  A
O41        In750   2.243       .  S
O41         C760   1.261       .  A
C42          O49   1.259       .  A
C42         O755   1.261   1_554  A
C42         C569   1.482       .  S
O43         C754   1.261       .  A
C44          O46   1.260       .  A
C44          O50   1.260       .  A
C44         C689   1.481       .  S
O46        In750   2.255       .  S
C48         O753   1.261       .  A
C48         C537   1.479       .  S
O49        In750   2.253       .  S
O50        In750   2.254       .  S
C51          C52   1.535       .  S
C51          C57   1.542       .  S
C51          C55   1.535       .  S
C51         C665   1.527       .  S
C52          H59   1.087       .  S
C52          C53   1.363       .  D
C53          C54   1.539       .  S
C53         C513   1.479       .  S
C54          C58   1.544       .  S
C54          C56   1.543       .  S
C54          H60   1.109       .  S
C55          H61   1.085       .  S
C55          C56   1.367       .  D
C56         C529   1.493       .  S
C57          H62   1.082       .  S
C57          C58   1.367       .  D
C58         C497   1.483       .  S
C63          C64   1.531       .  S
C63          C69   1.533       .  S
C63          C67   1.545       .  S
C63         C601   1.529       .  S
C64          H71   1.086       .  S
C64          C65   1.364       .  D
C65          C66   1.542       .  S
C65         C473   1.483       .  S
C66          C70   1.548       .  S
C66          C68   1.546       .  S
C66          H72   1.109       .  S
C67          H73   1.080       .  S
C67          C68   1.368       .  D
C68         C441   1.493       .  S
C69          H74   1.086       .  S
C69          C70   1.369       .  D
C70         C465   1.495       .  S
In75         O78   2.238   1_554  S
In75         O86   2.271       .  S
In75         O83   2.244       .  S
In75         O87   2.251       .  S
In75        O789   2.245       .  S
In75        O792   2.233   1_554  S
In75        O794   2.246   1_554  S
In75        O796   2.249   1_554  S
C76          O82   1.265       .  A
C76          O84   1.263       .  A
C76         C457   1.483       .  S
O77        In787   2.245       .  S
O77          C85   1.258       .  A
O78         C797   1.261   1_556  A
C79          O86   1.260       .  A
C79         O792   1.257   1_554  A
C79         C433   1.477   1_554  S
O80        In787   2.233       .  S
O80         C791   1.257       .  A
C81          O83   1.257       .  A
C81          O87   1.259       .  A
C81         C481   1.472       .  S
O82        In787   2.246       .  S
O84        In787   2.249       .  S
C85         O790   1.261       .  A
C85         C561   1.472       .  S
In88         O90   2.250   1_554  S
In88         O93   2.261       .  S
In88         O95   2.259       .  S
In88         O97   2.254       .  S
In88        O803   2.258       .  S
In88        O811   2.238       .  S
In88        O808   2.249   1_554  S
In88        O812   2.237   1_554  S
C89          O95   1.260       .  A
C89          O97   1.259       .  A
C89         C505   1.481       .  S
O90          C98   1.258   1_556  A
O91        In800   2.258       .  S
O91         C810   1.260       .  A
C92          O99   1.258       .  A
C92         O805   1.259       .  A
C92         C425   1.476       .  S
O93         C804   1.259       .  A
C94          O96   1.263       .  A
C94         O100   1.262       .  A
C94         C521   1.477       .  S
O96        In800   2.249       .  S
C98         O803   1.260       .  A
C98         C545   1.479       .  S
O99        In800   2.238       .  S
O100       In800   2.237       .  S
C101        C102   1.534       .  S
C101        C107   1.533       .  S
C101        C105   1.540       .  S
C101        C377   1.523       .  S
C102        H109   1.086       .  S
C102        C103   1.366       .  D
C103        C104   1.543       .  S
C103        C393   1.489       .  S
C104        C108   1.541       .  S
C104        C106   1.541       .  S
C104        H110   1.109       .  S
C105        H111   1.081       .  S
C105        C106   1.366       .  D
C106        C657   1.480       .  S
C107        H112   1.086       .  S
C107        C108   1.364       .  D
C108        C409   1.482       .  S
C113        C114   1.535       .  S
C113        C119   1.531       .  S
C113        C117   1.541       .  S
C113        C329   1.525       .  S
C114        H121   1.085       .  S
C114        C115   1.370       .  D
C115        C116   1.543       .  S
C115        C361   1.490       .  S
C116        C120   1.542       .  S
C116        C118   1.542       .  S
C116        H122   1.108       .  S
C117        H123   1.080       .  S
C117        C118   1.367       .  D
C118        C585   1.485       .  S
C119        H124   1.086       .  S
C119        C120   1.363       .  D
C120        C345   1.486       .  S
In125       O127   2.233   1_554  S
In125       O130   2.269       .  S
In125       O132   2.245       .  S
In125       O134   2.261       .  S
In125       O840   2.259       .  S
In125       O848   2.244   1_554  S
In125       O845   2.244   1_554  S
In125       O849   2.241   1_554  S
C126        O132   1.260       .  A
C126        O134   1.262       .  A
C126        C353   1.480       .  S
O127        C135   1.256       .  A
O128       In837   2.259       .  S
O128        C847   1.261       .  A
C129        O136   1.258       .  A
C129        O842   1.260       .  A
C129        C321   1.480       .  S
O130        C841   1.260       .  A
C131        O133   1.262       .  A
C131        O137   1.264       .  A
C131        C369   1.478       .  S
O133       In837   2.244       .  S
C135        O840   1.261   1_556  A
C135        C305   1.473       .  S
O136       In837   2.244       .  S
O137       In837   2.241       .  S
In138       O141   2.238       .  S
In138       O149   2.260       .  S
In138       O146   2.252       .  S
In138       O150   2.245       .  S
In138       O852   2.246   1_554  S
In138       O855   2.239   1_554  S
In138       O857   2.246   1_554  S
In138       O859   2.242   1_554  S
C139        O145   1.261       .  A
C139        O147   1.261       .  A
C139        C417   1.476       .  S
O140       In850   2.246       .  S
O140        C148   1.261       .  A
O141        C860   1.261   1_554  A
C142        O149   1.261   1_556  A
C142        O855   1.259       .  A
C142        C313   1.479       .  S
O143       In850   2.239       .  S
O143        C854   1.259       .  A
C144        O146   1.260       .  A
C144        O150   1.261       .  A
C144        C401   1.478       .  S
O145       In850   2.246       .  S
O147       In850   2.242       .  S
C148        O853   1.261       .  A
C148        C289   1.474       .  S
C151        C152   1.535       .  S
C151        C157   1.534       .  S
C151        C155   1.536       .  S
C151        C385   1.526       .  S
C152        H159   1.086       .  S
C152        C153   1.369       .  D
C153        C154   1.547       .  S
C153        C257   1.494       .  S
C154        C158   1.546       .  S
C154        C156   1.546       .  S
C154        H160   1.109       .  S
C155        H161   1.080       .  S
C155        C156   1.365       .  D
C156        C489   1.487       .  S
C157        H162   1.086       .  S
C157        C158   1.366       .  D
C158        C273   1.491       .  S
C163        C164   1.529       .  S
C163        C169   1.545       .  S
C163        C167   1.532       .  S
C163        C337   1.524       .  S
C164        H171   1.086       .  S
C164        C165   1.362       .  D
C165        C166   1.541       .  S
C165        C217   1.483       .  S
C166        C170   1.543       .  S
C166        C168   1.543       .  S
C166        H172   1.107       .  S
C167        H173   1.086       .  S
C167        C168   1.366       .  D
C168        C233   1.484       .  S
C169        H174   1.079       .  S
C169        C170   1.371       .  D
C170        C449   1.497       .  S
In175       O178   2.240       .  S
In175       O186   2.254       .  S
In175       O183   2.236   1_556  S
In175       O187   2.249       .  S
In175       O889   2.243       .  S
In175       O892   2.251       .  S
In175       O894   2.247       .  S
In175       O896   2.239       .  S
C176        O182   1.262       .  A
C176        O184   1.260       .  A
C176        C225   1.475       .  S
O177       In887   2.243       .  S
O177        C185   1.260       .  A
O178        C897   1.259       .  A
C179        O186   1.259       .  A
C179        O892   1.259       .  A
C179        C209   1.479       .  S
O180       In887   2.251       .  S
O180        C891   1.259       .  A
C181        O183   1.260       .  A
C181        O187   1.262   1_554  A
C181        C241   1.475       .  S
O182       In887   2.247       .  S
O184       In887   2.239       .  S
C185        O890   1.259       .  A
C185        C297   1.472       .  S
In188       O190   2.242   1_554  S
In188       O193   2.252       .  S
In188       O195   2.256       .  S
In188       O197   2.253       .  S
In188       O903   2.246       .  S
In188       O911   2.256   1_554  S
In188       O908   2.253   1_554  S
In188       O912   2.256   1_554  S
C189        O195   1.261       .  A
C189        O197   1.262       .  A
C189        C265   1.482       .  S
O190        C198   1.260   1_556  A
O191       In900   2.246       .  S
O191        C910   1.261       .  A
C192        O199   1.260       .  A
C192        O905   1.259       .  A
C192        C201   1.480       .  S
O193        C904   1.259       .  A
C194        O196   1.260       .  A
C194        O200   1.262       .  A
C194        C249   1.483       .  S
O196       In900   2.253       .  S
C198        O903   1.261       .  A
C198        C281   1.475       .  S
O199       In900   2.256       .  S
O200       In900   2.256       .  S
C201        C206   1.406       .  A
C201        C914   1.405       .  A
C202        C203   1.398       .  A
C202        C913   1.405       .  A
C202        H211   1.083       .  S
C203        C204   1.402       .  A
C203        H212   1.084       .  S
C204        C210   1.405       .  A
C204        C917   1.414   1_554  A
C205        C207   1.402       .  A
C205        C206   1.405       .  A
C205        C916   1.414       .  A
C206        H213   1.084       .  S
C207        C208   1.398       .  A
C207        H214   1.084       .  S
C208        C921   1.405       .  A
C208        H215   1.083       .  S
C209        C210   1.406   1_556  A
C209        C920   1.405       .  A
C210        H216   1.084       .  S
C217        C218   1.408       .  A
C217        C222   1.403       .  A
C218        C219   1.395       .  A
C218        H227   1.083       .  S
C219        C220   1.400       .  A
C219        H228   1.084       .  S
C220        C226   1.403       .  A
C220        C221   1.415       .  A
C221        C223   1.401       .  A
C221        C222   1.404       .  A
C222        H229   1.084       .  S
C223        C224   1.397       .  A
C223        H230   1.084       .  S
C224        C225   1.405       .  A
C224        H231   1.083       .  S
C225        C226   1.404       .  A
C226        H232   1.084       .  S
C233        C234   1.407       .  A
C233        C238   1.404       .  A
C234        C235   1.395       .  A
C234        H243   1.082       .  S
C235        C236   1.400       .  A
C235        H244   1.084       .  S
C236        C242   1.402       .  A
C236        C237   1.414       .  A
C237        C239   1.401       .  A
C237        C238   1.403       .  A
C238        H245   1.083       .  S
C239        C240   1.396       .  A
C239        H246   1.084       .  S
C240        C241   1.405       .  A
C240        H247   1.083       .  S
C241        C242   1.404       .  A
C242        H248   1.084       .  S
C249        C250   1.407       .  A
C249        C254   1.405       .  A
C250        C251   1.401       .  A
C250        H259   1.083       .  S
C251        C252   1.404       .  A
C251        H260   1.084       .  S
C252        C258   1.411       .  A
C252        C253   1.414       .  A
C253        C255   1.399       .  A
C253        C254   1.405       .  A
C254        H261   1.084       .  S
C255        C256   1.395       .  A
C255        H262   1.084       .  S
C256        C257   1.409       .  A
C256        H263   1.082       .  S
C257        C258   1.409       .  A
C258        H264   1.083       .  S
C265        C266   1.405       .  A
C265        C270   1.408       .  A
C266        C267   1.398       .  A
C266        H275   1.083       .  S
C267        C268   1.402       .  A
C267        H276   1.084       .  S
C268        C274   1.405       .  A
C268        C269   1.413       .  A
C269        C271   1.402       .  A
C269        C270   1.407       .  A
C270        H277   1.084       .  S
C271        C272   1.399       .  A
C271        H278   1.084       .  S
C272        C273   1.404       .  A
C272        H279   1.077       .  S
C273        C274   1.409       .  A
C274        H280   1.084       .  S
C281        C282   1.404       .  A
C281        C286   1.406   1_554  A
C282        C283   1.396       .  A
C282        H291   1.083       .  S
C283        C284   1.401   1_565  A
C283        H292   1.084   1_565  S
C284        C285   1.414   1_554  A
C284       C1002   1.401       .  A
C285        C287   1.402       .  A
C285        C286   1.403   1_545  A
C286        H293   1.084       .  S
C287       C1000   1.398       .  A
C287        H294   1.084       .  S
C288        C289   1.405       .  A
C288        C999   1.398       .  A
C288        H295   1.083       .  S
C289        C290   1.404       .  A
C290        C996   1.401       .  A
C290        H296   1.084       .  S
C297        C298   1.405       .  A
C297       C1014   1.403       .  A
C298        C299   1.396       .  A
C298        H307   1.083       .  S
C299       C1012   1.401   1_565  A
C299        H308   1.084   1_565  S
C300        C306   1.403       .  A
C300        C301   1.415       .  A
C300       C1011   1.401   1_545  A
C301        C303   1.400       .  A
C301        C302   1.401   1_545  A
C302       C1009   1.403       .  A
C302        H309   1.084       .  S
C303        C304   1.395       .  A
C303        H310   1.084       .  S
C304        C305   1.406       .  A
C304        H311   1.083       .  S
C305        C306   1.403       .  A
C306        H312   1.084   1_556  S
C313        C318   1.408   1_556  A
C313       C1026   1.405       .  A
C314        C315   1.395       .  A
C314       C1025   1.405       .  A
C314        H323   1.083       .  S
C315        C316   1.401       .  A
C315        H324   1.084       .  S
C316        C322   1.403       .  A
C316       C1029   1.414       .  A
C317        C319   1.404       .  A
C317        C318   1.408       .  A
C317       C1028   1.414   1_554  A
C318        H325   1.084       .  S
C319        C320   1.401       .  A
C319        H326   1.083       .  S
C320       C1033   1.405       .  A
C320        H327   1.083       .  S
C321        C322   1.405       .  A
C321       C1032   1.405       .  A
C322        H328   1.084       .  S
C329        C330   1.411       .  A
C329        C334   1.409       .  A
C330        C331   1.395       .  A
C330        H339   1.076       .  S
C331        C332   1.399       .  A
C331        H340   1.084       .  S
C332        C338   1.402       .  A
C332        C333   1.410       .  A
C333        C335   1.399       .  A
C333        C334   1.400       .  A
C334        H341   1.085       .  S
C335        C336   1.395       .  A
C335        H342   1.084       .  S
C336        C337   1.410       .  A
C336        H343   1.083       .  S
C337        C338   1.409       .  A
C338        H344   1.077       .  S
C345        C346   1.407       .  A
C345        C350   1.406       .  A
C346        C347   1.394       .  A
C346        H355   1.083       .  S
C347        C348   1.400       .  A
C347        H356   1.084       .  S
C348        C354   1.403       .  A
C348        C349   1.415       .  A
C349        C351   1.404       .  A
C349        C350   1.409       .  A
C350        H357   1.084       .  S
C351        C352   1.401       .  A
C351        H358   1.084       .  S
C352        C353   1.405       .  A
C352        H359   1.083       .  S
C353        C354   1.404       .  A
C354        H360   1.084       .  S
C361        C362   1.407       .  A
C361        C366   1.408       .  A
C362        C363   1.398       .  A
C362        H371   1.082       .  S
C363        C364   1.402       .  A
C363        H372   1.084       .  S
C364        C370   1.405       .  A
C364        C365   1.413       .  A
C365        C367   1.402       .  A
C365        C366   1.403       .  A
C366        H373   1.083       .  S
C367        C368   1.397       .  A
C367        H374   1.084       .  S
C368        C369   1.404       .  A
C368        H375   1.083       .  S
C369        C370   1.407       .  A
C370        H376   1.084       .  S
C377        C378   1.409       .  A
C377        C382   1.411       .  A
C378        C379   1.393       .  A
C378        H387   1.083       .  S
C379        C380   1.398       .  A
C379        H388   1.084       .  S
C380        C386   1.399       .  A
C380        C381   1.410       .  A
C381        C383   1.400       .  A
C381        C382   1.403       .  A
C382        H389   1.078       .  S
C383        C384   1.397       .  A
C383        H390   1.084       .  S
C384        C385   1.412       .  A
C384        H391   1.076       .  S
C385        C386   1.408       .  A
C386        H392   1.085       .  S
C393        C394   1.407       .  A
C393        C398   1.406       .  A
C394        C395   1.395       .  A
C394        H403   1.083       .  S
C395        C396   1.399       .  A
C395        H404   1.084       .  S
C396        C402   1.402       .  A
C396        C397   1.413       .  A
C397        C399   1.403       .  A
C397        C398   1.406       .  A
C398        H405   1.079       .  S
C399        C400   1.400       .  A
C399        H406   1.083       .  S
C400        C401   1.406       .  A
C400        H407   1.083       .  S
C401        C402   1.404       .  A
C402        H408   1.084       .  S
C409        C410   1.403       .  A
C409        C414   1.407       .  A
C410        C411   1.397       .  A
C410        H419   1.083       .  S
C411        C412   1.403       .  A
C411        H420   1.084       .  S
C412        C418   1.403       .  A
C412        C413   1.413       .  A
C413        C415   1.402       .  A
C413        C414   1.402       .  A
C414        H421   1.084       .  S
C415        C416   1.397       .  A
C415        H422   1.084       .  S
C416        C417   1.405       .  A
C416        H423   1.083       .  S
C417        C418   1.405       .  A
C418        H424   1.084       .  S
C425        C430   1.403       .  A
C425       C1138   1.405       .  A
C426        C427   1.401   1_455  A
C426       C1137   1.405       .  A
C426        H435   1.083       .  S
C427        C428   1.404       .  A
C427        H436   1.083       .  S
C428        C434   1.408       .  A
C428       C1141   1.414   1_554  A
C429        C431   1.399       .  A
C429        C430   1.400   1_655  A
C429       C1140   1.414       .  A
C430        H437   1.085       .  S
C431        C432   1.393       .  A
C431        H438   1.084       .  S
C432       C1145   1.405       .  A
C432        H439   1.083       .  S
C433        C434   1.408   1_556  A
C433       C1144   1.405       .  A
C434        H440   1.084       .  S
C441        C442   1.403       .  A
C441        C446   1.412       .  A
C442        C443   1.396       .  A
C442        H451   1.077       .  S
C443        C444   1.401       .  A
C443        H452   1.084       .  S
C444        C450   1.403       .  A
C444        C445   1.411       .  A
C445        C447   1.404       .  A
C445        C446   1.408       .  A
C446        H453   1.084       .  S
C447        C448   1.401       .  A
C447        H454   1.084       .  S
C448        C449   1.408       .  A
C448        H455   1.081       .  S
C449        C450   1.409       .  A
C450        H456   1.083       .  S
C457        C458   1.405       .  A
C457        C462   1.409       .  A
C458        C459   1.397       .  A
C458        H467   1.083       .  S
C459        C460   1.402       .  A
C459        H468   1.084       .  S
C460        C466   1.404       .  A
C460        C461   1.413       .  A
C461        C463   1.403       .  A
C461        C462   1.408       .  A
C462        H469   1.084       .  S
C463        C464   1.401       .  A
C463        H470   1.084       .  S
C464        C465   1.405       .  A
C464        H471   1.077       .  S
C465        C466   1.409       .  A
C466        H472   1.083       .  S
C473        C474   1.407       .  A
C473        C478   1.405       .  A
C474        C475   1.393       .  A
C474        H483   1.083       .  S
C475        C476   1.398       .  A
C475        H484   1.084       .  S
C476        C482   1.400       .  A
C476        C477   1.415       .  A
C477        C479   1.402       .  A
C477        C478   1.405       .  A
C478        H485   1.084       .  S
C479        C480   1.398       .  A
C479        H486   1.084       .  S
C480        C481   1.405       .  A
C480        H487   1.083       .  S
C481        C482   1.401       .  A
C482        H488   1.085       .  S
C489        C490   1.408       .  A
C489        C494   1.402       .  A
C490        C491   1.396       .  A
C490        H499   1.083       .  S
C491        C492   1.400       .  A
C491        H500   1.084       .  S
C492        C498   1.403       .  A
C492        C493   1.413       .  A
C493        C495   1.401       .  A
C493        C494   1.403       .  A
C494        H501   1.078       .  S
C495        C496   1.397       .  A
C495        H502   1.084       .  S
C496        C497   1.405       .  A
C496        H503   1.083       .  S
C497        C498   1.403       .  A
C498        H504   1.079       .  S
C505        C506   1.406       .  A
C505        C510   1.406       .  A
C506        C507   1.399       .  A
C506        H515   1.083       .  S
C507        C508   1.402       .  A
C507        H516   1.084       .  S
C508        C514   1.407       .  A
C508        C509   1.415       .  A
C509        C511   1.402       .  A
C509        C510   1.405       .  A
C510        H517   1.084       .  S
C511        C512   1.397       .  A
C511        H518   1.084       .  S
C512        C513   1.404       .  A
C512        H519   1.083       .  S
C513        C514   1.403       .  A
C514        H520   1.085       .  S
C521        C522   1.405       .  A
C521        C526   1.405       .  A
C522        C523   1.398       .  A
C522        H531   1.083       .  S
C523        C524   1.403       .  A
C523        H532   1.084       .  S
C524        C530   1.403       .  A
C524        C525   1.412       .  A
C525        C527   1.401       .  A
C525        C526   1.403       .  A
C526        H533   1.084       .  S
C527        C528   1.397       .  A
C527        H534   1.084       .  S
C528        C529   1.405       .  A
C528        H535   1.077       .  S
C529        C530   1.410       .  A
C530        H536   1.083       .  S
C537        C542   1.407       .  A
C537       C1250   1.405       .  A
C538        C539   1.397       .  A
C538       C1249   1.405       .  A
C538        H547   1.083       .  S
C539        C540   1.401       .  A
C539        H548   1.084       .  S
C540        C546   1.404       .  A
C540       C1253   1.414       .  A
C541        C543   1.403       .  A
C541        C542   1.406       .  A
C541       C1252   1.414       .  A
C542        H549   1.084       .  S
C543        C544   1.399       .  A
C543        H550   1.084       .  S
C544       C1257   1.406       .  A
C544        H551   1.083       .  S
C545        C546   1.405       .  A
C545       C1256   1.406   1_554  A
C546        H552   1.084       .  S
C553        C554   1.404       .  A
C553       C1270   1.407   1_556  A
C554        C555   1.395       .  A
C554        H563   1.083       .  S
C555        C556   1.401       .  A
C555        H564   1.084       .  S
C556        C562   1.399       .  A
C556       C1269   1.414   1_556  A
C557        C559   1.403       .  A
C557        C558   1.403       .  A
C557       C1268   1.414       .  A
C558       C1265   1.407       .  A
C558        H565   1.084       .  S
C559        C560   1.398       .  A
C559        H566   1.084       .  S
C560        C561   1.405       .  A
C560        H567   1.083       .  S
C561       C1274   1.402       .  A
C562       C1273   1.402   1_556  A
C562        H568   1.084       .  S
C569        C570   1.406       .  A
C569       C1286   1.407   1_554  A
C570        C571   1.398   1_455  A
C570        H579   1.083       .  S
C571        C572   1.402       .  A
C571        H580   1.084       .  S
C572        C578   1.405       .  A
C572       C1285   1.414   1_554  A
C573        C575   1.403       .  A
C573        C574   1.406   1_655  A
C573       C1284   1.414       .  A
C574       C1281   1.407       .  A
C574        H581   1.084       .  S
C575        C576   1.399       .  A
C575        H582   1.084       .  S
C576        C577   1.405       .  A
C576        H583   1.083       .  S
C577       C1290   1.407       .  A
C578       C1289   1.407   1_554  A
C578        H584   1.084       .  S
C585        C586   1.408       .  A
C585        C590   1.403       .  A
C586        C587   1.396       .  A
C586        H595   1.083       .  S
C587        C588   1.400       .  A
C587        H596   1.084       .  S
C588        C594   1.404       .  A
C588        C589   1.415       .  A
C589        C591   1.400       .  A
C589        C590   1.404       .  A
C590        H597   1.084       .  S
C591        C592   1.396       .  A
C591        H598   1.084       .  S
C592        C593   1.406       .  A
C592        H599   1.083       .  S
C593        C594   1.403       .  A
C594        H600   1.084       .  S
C601        C602   1.410       .  A
C601        C606   1.412       .  A
C602        C603   1.396       .  A
C602        H611   1.076       .  S
C603        C604   1.400   1_565  A
C603        H612   1.084       .  S
C604        C610   1.403       .  A
C604        C605   1.409   1_545  A
C605        C607   1.401   1_565  A
C605        C606   1.403       .  A
C606        H613   1.085       .  S
C607        C608   1.398       .  A
C607        H614   1.084   1_545  S
C608        C609   1.410       .  A
C608        H615   1.083       .  S
C609        C610   1.412       .  A
C610        H616   1.076       .  S
C617        C618   1.405       .  A
C617        C622   1.404       .  A
C618        C619   1.402       .  A
C618        H627   1.083       .  S
C619        C620   1.405       .  A
C619        H628   1.084       .  S
C620        C626   1.408       .  A
C620        C621   1.414       .  A
C621        C623   1.399       .  A
C621        C622   1.401       .  A
C622        H629   1.084       .  S
C623        C624   1.394       .  A
C623        H630   1.084       .  S
C624        C625   1.406       .  A
C624        H631   1.083       .  S
C625        C626   1.409       .  A
C626        H632   1.084       .  S
C633        C634   1.408       .  A
C633        C638   1.409       .  A
C634        C635   1.398       .  A
C634        H643   1.081       .  S
C635        C636   1.401       .  A
C635        H644   1.084       .  S
C636        C642   1.406       .  A
C636        C637   1.413       .  A
C637        C639   1.401       .  A
C637        C638   1.403       .  A
C638        H645   1.082       .  S
C639        C640   1.396       .  A
C639        H646   1.084       .  S
C640        C641   1.405       .  A
C640        H647   1.083       .  S
C641        C642   1.406       .  A
C642        H648   1.084       .  S
C649        C650   1.402       .  A
C649        C654   1.407       .  A
C650        C651   1.398       .  A
C650        H659   1.081       .  S
C651        C652   1.404       .  A
C651        H660   1.083       .  S
C652        C658   1.402       .  A
C652        C653   1.412       .  A
C653        C655   1.401       .  A
C653        C654   1.398       .  A
C654        H661   1.084       .  S
C655        C656   1.395       .  A
C655        H662   1.084       .  S
C656        C657   1.402       .  A
C656        H663   1.078       .  S
C657        C658   1.407       .  A
C658        H664   1.084       .  S
C665        C666   1.410       .  A
C665        C670   1.411       .  A
C666        C667   1.394   1_565  A
C666        H675   1.083       .  S
C667        C668   1.398       .  A
C667        H676   1.084       .  S
C668        C674   1.402       .  A
C668        C669   1.411       .  A
C669        C671   1.399       .  A
C669        C670   1.405   1_545  A
C670        H677   1.078       .  S
C671        C672   1.397       .  A
C671        H678   1.084       .  S
C672        C673   1.414       .  A
C672        H679   1.076       .  S
C673        C674   1.408       .  A
C674        H680   1.085       .  S
C681        C682   1.407       .  A
C681        C686   1.408       .  A
C682        C683   1.398       .  A
C682        H691   1.082       .  S
C683        C684   1.401       .  A
C683        H692   1.084       .  S
C684        C690   1.406       .  A
C684        C685   1.413       .  A
C685        C687   1.402       .  A
C685        C686   1.406       .  A
C686        H693   1.083       .  S
C687        C688   1.398       .  A
C687        H694   1.084       .  S
C688        C689   1.405       .  A
C688        H695   1.083       .  S
C689        C690   1.407       .  A
C690        H696   1.084       .  S
C697        C698   1.406       .  A
C697        C702   1.406       .  A
C698        C699   1.400       .  A
C698        H707   1.083       .  S
C699        C700   1.403       .  A
C699        H708   1.083       .  S
C700        C706   1.408       .  A
C700        C701   1.414       .  A
C701        C703   1.401       .  A
C701        C702   1.406       .  A
C702        H709   1.084       .  S
C703        C704   1.397       .  A
C703        H710   1.084       .  S
C704        C705   1.407       .  A
C704        H711   1.083       .  S
C705        C706   1.407       .  A
C706        H712   1.082       .  S
C713        C714   1.541       .  S
C713        C719   1.534       .  S
C713        C717   1.539       .  S
C713       C1385   1.530       .  S
C714        H721   1.086       .  S
C714        C715   1.371       .  D
C715        C716   1.542       .  S
C715       C1393   1.491       .  S
C716        C720   1.543       .  S
C716        C718   1.536       .  S
C716        H722   1.108       .  S
C717        H723   1.080       .  S
C717        C718   1.364       .  D
C718       C1361   1.481       .  S
C719        H724   1.086       .  S
C719        C720   1.367       .  D
C720       C1417   1.490       .  S
C725        C726   1.537       .  S
C725        C731   1.541       .  S
C725        C729   1.537       .  S
C725       C1321   1.531       .  S
C726        H733   1.086       .  S
C726        C727   1.369       .  D
C727        C728   1.539       .  S
C727       C1337   1.488       .  S
C728        C732   1.538       .  S
C728        C730   1.543       .  S
C728        H734   1.107       .  S
C729        H735   1.085       .  S
C729        C730   1.371       .  D
C730       C1345   1.493       .  S
C731        H736   1.080       .  S
C731        C732   1.362       .  D
C732       C1305   1.482       .  S
In737       O739   2.244       .  S
In737       O742   2.254       .  S
In737       O744   2.229       .  S
In737       O746   2.257       .  S
C738        O744   1.262       .  A
C738        O746   1.264       .  A
C738       C1329   1.479       .  S
O739        C747   1.259       .  A
C741        O748   1.258       .  A
C741       C1289   1.480       .  S
C743        O745   1.261       .  A
C743        O749   1.259       .  A
C743       C1353   1.478       .  S
C747       C1265   1.475       .  S
In750       O752   2.255   1_554  S
In750       O755   2.262   1_554  S
In750       O757   2.256   1_554  S
In750       O759   2.251   1_554  S
C751        O757   1.262       .  A
C751        O759   1.261       .  A
C751       C1409   1.482       .  S
O752        C760   1.262   1_556  A
C754        O761   1.259       .  A
C754       C1281   1.482       .  S
C756        O758   1.260       .  A
C756        O762   1.260       .  A
C756       C1401   1.481       .  S
C760       C1249   1.479       .  S
C763        C764   1.535       .  S
C763        C769   1.542       .  S
C763        C767   1.535       .  S
C763       C1377   1.527       .  S
C764        H771   1.087       .  S
C764        C765   1.363       .  D
C765        C766   1.539       .  S
C765       C1225   1.479       .  S
C766        C770   1.544       .  S
C766        C768   1.543       .  S
C766        H772   1.109       .  S
C767        H773   1.085       .  S
C767        C768   1.367       .  D
C768       C1241   1.493       .  S
C769        H774   1.081       .  S
C769        C770   1.367       .  D
C770       C1209   1.483       .  S
C775        C776   1.531       .  S
C775        C781   1.533       .  S
C775        C779   1.545       .  S
C775       C1313   1.528       .  S
C776        H783   1.086       .  S
C776        C777   1.364       .  D
C777        C778   1.541       .  S
C777       C1185   1.483       .  S
C778        C782   1.548       .  S
C778        C780   1.546       .  S
C778        H784   1.109       .  S
C779        H785   1.080       .  S
C779        C780   1.368       .  D
C780       C1153   1.493       .  S
C781        H786   1.086       .  S
C781        C782   1.369       .  D
C782       C1177   1.495       .  S
In787       O790   2.238       .  S
In787       O798   2.271       .  S
In787       O795   2.244       .  S
In787       O799   2.251       .  S
C788        O794   1.265       .  A
C788        O796   1.263       .  A
C788       C1169   1.483       .  S
O789        C797   1.258       .  A
C791        O798   1.260       .  A
C791       C1145   1.477       .  S
C793        O795   1.257       .  A
C793        O799   1.259       .  A
C793       C1193   1.472       .  S
C797       C1273   1.472       .  S
In800       O802   2.250       .  S
In800       O805   2.261       .  S
In800       O807   2.259       .  S
In800       O809   2.254       .  S
C801        O807   1.260       .  A
C801        O809   1.259       .  A
C801       C1217   1.481       .  S
O802        C810   1.258       .  A
C804        O811   1.258       .  A
C804       C1137   1.476       .  S
C806        O808   1.263       .  A
C806        O812   1.262       .  A
C806       C1233   1.477       .  S
C810       C1257   1.479       .  S
C813        C814   1.534       .  S
C813        C819   1.533       .  S
C813        C817   1.540       .  S
C813       C1089   1.523       .  S
C814        H821   1.086       .  S
C814        C815   1.366       .  D
C815        C816   1.543       .  S
C815       C1105   1.489       .  S
C816        C820   1.541       .  S
C816        C818   1.541       .  S
C816        H822   1.109       .  S
C817        H823   1.081       .  S
C817        C818   1.366       .  D
C818       C1369   1.480       .  S
C819        H824   1.086       .  S
C819        C820   1.364       .  D
C820       C1121   1.482       .  S
C825        C826   1.535       .  S
C825        C831   1.531       .  S
C825        C829   1.541       .  S
C825       C1041   1.525       .  S
C826        H833   1.085       .  S
C826        C827   1.370       .  D
C827        C828   1.543       .  S
C827       C1073   1.490       .  S
C828        C832   1.542       .  S
C828        C830   1.542       .  S
C828        H834   1.108       .  S
C829        H835   1.080       .  S
C829        C830   1.367       .  D
C830       C1297   1.485       .  S
C831        H836   1.086       .  S
C831        C832   1.363       .  D
C832       C1057   1.486       .  S
In837       O839   2.233       .  S
In837       O842   2.269       .  S
In837       O844   2.245       .  S
In837       O846   2.261       .  S
C838        O844   1.260       .  A
C838        O846   1.262       .  A
C838       C1065   1.480       .  S
O839        C847   1.256       .  A
C841        O848   1.258   1_554  A
C841       C1033   1.480       .  S
C843        O845   1.262       .  A
C843        O849   1.264       .  A
C843       C1081   1.478       .  S
C847       C1017   1.473       .  S
In850       O853   2.238       .  S
In850       O861   2.260       .  S
In850       O858   2.252       .  S
In850       O862   2.245       .  S
C851        O857   1.261       .  A
C851        O859   1.261       .  A
C851       C1129   1.476       .  S
O852        C860   1.261       .  A
C854        O861   1.261       .  A
C854       C1025   1.479       .  S
C856        O858   1.260       .  A
C856        O862   1.261       .  A
C856       C1113   1.478       .  S
C860       C1001   1.475       .  S
C863        C864   1.535       .  S
C863        C869   1.534       .  S
C863        C867   1.536       .  S
C863       C1097   1.526       .  S
C864        H871   1.086       .  S
C864        C865   1.369       .  D
C865        C866   1.547       .  S
C865        C969   1.494       .  S
C866        C870   1.546       .  S
C866        C868   1.546       .  S
C866        H872   1.109       .  S
C867        H873   1.080       .  S
C867        C868   1.365       .  D
C868       C1201   1.487       .  S
C869        H874   1.086       .  S
C869        C870   1.366       .  D
C870        C985   1.491       .  S
C875        C876   1.529       .  S
C875        C881   1.545       .  S
C875        C879   1.532       .  S
C875       C1049   1.524       .  S
C876        H883   1.086       .  S
C876        C877   1.362       .  D
C877        C878   1.541       .  S
C877        C929   1.483       .  S
C878        C882   1.543       .  S
C878        C880   1.543       .  S
C878        H884   1.107       .  S
C879        H885   1.086       .  S
C879        C880   1.366       .  D
C880        C945   1.484       .  S
C881        H886   1.079       .  S
C881        C882   1.371       .  D
C882       C1161   1.497       .  S
In887       O890   2.241       .  S
In887       O898   2.254       .  S
In887       O895   2.236       .  S
In887       O899   2.249       .  S
C888        O894   1.262       .  A
C888        O896   1.260       .  A
C888        C937   1.475       .  S
O889        C897   1.260       .  A
C891        O898   1.259       .  A
C891        C921   1.479       .  S
C893        O895   1.260       .  A
C893        O899   1.262       .  A
C893        C953   1.475       .  S
C897       C1009   1.472       .  S
In900       O902   2.242       .  S
In900       O905   2.252       .  S
In900       O907   2.256       .  S
In900       O909   2.253       .  S
C901        O907   1.261       .  A
C901        O909   1.261       .  A
C901        C977   1.482       .  S
O902        C910   1.260       .  A
C904        O911   1.260   1_554  A
C904        C913   1.480       .  S
C906        O908   1.260       .  A
C906        O912   1.262       .  A
C906        C961   1.483       .  S
C910        C993   1.475       .  S
C913        C918   1.406   1_554  A
C914        C915   1.398       .  A
C914        H923   1.083       .  S
C915        C916   1.402       .  A
C915        H924   1.084       .  S
C916        C922   1.405       .  A
C917        C919   1.402       .  A
C917        C918   1.405       .  A
C918        H925   1.084       .  S
C919        C920   1.398       .  A
C919        H926   1.084       .  S
C920        H927   1.083       .  S
C921        C922   1.406       .  A
C922        H928   1.084       .  S
C929        C930   1.408       .  A
C929        C934   1.403       .  A
C930        C931   1.395       .  A
C930        H939   1.083       .  S
C931        C932   1.400       .  A
C931        H940   1.084       .  S
C932        C938   1.403       .  A
C932        C933   1.415       .  A
C933        C935   1.401       .  A
C933        C934   1.404       .  A
C934        H941   1.084       .  S
C935        C936   1.397       .  A
C935        H942   1.084       .  S
C936        C937   1.405       .  A
C936        H943   1.083       .  S
C937        C938   1.404       .  A
C938        H944   1.084       .  S
C945        C946   1.407       .  A
C945        C950   1.404       .  A
C946        C947   1.395       .  A
C946        H955   1.082       .  S
C947        C948   1.400       .  A
C947        H956   1.084       .  S
C948        C954   1.402       .  A
C948        C949   1.414       .  A
C949        C951   1.401       .  A
C949        C950   1.403       .  A
C950        H957   1.083       .  S
C951        C952   1.396       .  A
C951        H958   1.084       .  S
C952        C953   1.405       .  A
C952        H959   1.083       .  S
C953        C954   1.404       .  A
C954        H960   1.084       .  S
C961        C962   1.407       .  A
C961        C966   1.405       .  A
C962        C963   1.401       .  A
C962        H971   1.083       .  S
C963        C964   1.404       .  A
C963        H972   1.084       .  S
C964        C970   1.411       .  A
C964        C965   1.414       .  A
C965        C967   1.399       .  A
C965        C966   1.405       .  A
C966        H973   1.084       .  S
C967        C968   1.395       .  A
C967        H974   1.084       .  S
C968        C969   1.409       .  A
C968        H975   1.082       .  S
C969        C970   1.409       .  A
C970        H976   1.083       .  S
C977        C978   1.405       .  A
C977        C982   1.408       .  A
C978        C979   1.398       .  A
C978        H987   1.083       .  S
C979        C980   1.402       .  A
C979        H988   1.084       .  S
C980        C986   1.405       .  A
C980        C981   1.413       .  A
C981        C983   1.402       .  A
C981        C982   1.407       .  A
C982        H989   1.084       .  S
C983        C984   1.399       .  A
C983        H990   1.084       .  S
C984        C985   1.404       .  A
C984        H991   1.077       .  S
C985        C986   1.409       .  A
C986        H992   1.084       .  S
C993        C994   1.404       .  A
C993        C998   1.406       .  A
C994        C995   1.396       .  A
C994       H1003   1.083       .  S
C995        C996   1.401   1_565  A
C995       H1004   1.084   1_565  S
C996        C997   1.414       .  A
C997        C999   1.402       .  A
C997        C998   1.403   1_545  A
C998       H1005   1.084       .  S
C999       H1006   1.084       .  S
C1000      C1001   1.405       .  A
C1000      H1007   1.083       .  S
C1001      C1002   1.404   1_556  A
C1002      H1008   1.084       .  S
C1009      C1010   1.405       .  A
C1010      C1011   1.396       .  A
C1010      H1019   1.083   1_556  S
C1011      H1020   1.084   1_566  S
C1012      C1018   1.403       .  A
C1012      C1013   1.415       .  A
C1013      C1015   1.400       .  A
C1013      C1014   1.401   1_545  A
C1014      H1021   1.085       .  S
C1015      C1016   1.395       .  A
C1015      H1022   1.084       .  S
C1016      C1017   1.406       .  A
C1016      H1023   1.083       .  S
C1017      C1018   1.404       .  A
C1018      H1024   1.084       .  S
C1025      C1030   1.408       .  A
C1026      C1027   1.395       .  A
C1026      H1035   1.083       .  S
C1027      C1028   1.401       .  A
C1027      H1036   1.084       .  S
C1028      C1034   1.403       .  A
C1029      C1031   1.404       .  A
C1029      C1030   1.408       .  A
C1030      H1037   1.084       .  S
C1031      C1032   1.401       .  A
C1031      H1038   1.084       .  S
C1032      H1039   1.083       .  S
C1033      C1034   1.405   1_554  A
C1034      H1040   1.084       .  S
C1041      C1042   1.411       .  A
C1041      C1046   1.409       .  A
C1042      C1043   1.395       .  A
C1042      H1051   1.076       .  S
C1043      C1044   1.399       .  A
C1043      H1052   1.084       .  S
C1044      C1050   1.402       .  A
C1044      C1045   1.410       .  A
C1045      C1047   1.399       .  A
C1045      C1046   1.400       .  A
C1046      H1053   1.085       .  S
C1047      C1048   1.395       .  A
C1047      H1054   1.084       .  S
C1048      C1049   1.410       .  A
C1048      H1055   1.083       .  S
C1049      C1050   1.409       .  A
C1050      H1056   1.077       .  S
C1057      C1058   1.407       .  A
C1057      C1062   1.406       .  A
C1058      C1059   1.394       .  A
C1058      H1067   1.083       .  S
C1059      C1060   1.400       .  A
C1059      H1068   1.084       .  S
C1060      C1066   1.403       .  A
C1060      C1061   1.415       .  A
C1061      C1063   1.404       .  A
C1061      C1062   1.409       .  A
C1062      H1069   1.084       .  S
C1063      C1064   1.401       .  A
C1063      H1070   1.084       .  S
C1064      C1065   1.405       .  A
C1064      H1071   1.083       .  S
C1065      C1066   1.404       .  A
C1066      H1072   1.084       .  S
C1073      C1074   1.407       .  A
C1073      C1078   1.408       .  A
C1074      C1075   1.398       .  A
C1074      H1083   1.082       .  S
C1075      C1076   1.402       .  A
C1075      H1084   1.084       .  S
C1076      C1082   1.405       .  A
C1076      C1077   1.413       .  A
C1077      C1079   1.402       .  A
C1077      C1078   1.403       .  A
C1078      H1085   1.083       .  S
C1079      C1080   1.397       .  A
C1079      H1086   1.084       .  S
C1080      C1081   1.404       .  A
C1080      H1087   1.083       .  S
C1081      C1082   1.407       .  A
C1082      H1088   1.084       .  S
C1089      C1090   1.409       .  A
C1089      C1094   1.411       .  A
C1090      C1091   1.393       .  A
C1090      H1099   1.083       .  S
C1091      C1092   1.398       .  A
C1091      H1100   1.084       .  S
C1092      C1098   1.399       .  A
C1092      C1093   1.410       .  A
C1093      C1095   1.400       .  A
C1093      C1094   1.403       .  A
C1094      H1101   1.078       .  S
C1095      C1096   1.397       .  A
C1095      H1102   1.084       .  S
C1096      C1097   1.412       .  A
C1096      H1103   1.076       .  S
C1097      C1098   1.408       .  A
C1098      H1104   1.085       .  S
C1105      C1106   1.407       .  A
C1105      C1110   1.406       .  A
C1106      C1107   1.395       .  A
C1106      H1115   1.083       .  S
C1107      C1108   1.399       .  A
C1107      H1116   1.084       .  S
C1108      C1114   1.402       .  A
C1108      C1109   1.413       .  A
C1109      C1111   1.403       .  A
C1109      C1110   1.406       .  A
C1110      H1117   1.079       .  S
C1111      C1112   1.400       .  A
C1111      H1118   1.083       .  S
C1112      C1113   1.406       .  A
C1112      H1119   1.083       .  S
C1113      C1114   1.404       .  A
C1114      H1120   1.084       .  S
C1121      C1122   1.403       .  A
C1121      C1126   1.407       .  A
C1122      C1123   1.397       .  A
C1122      H1131   1.083       .  S
C1123      C1124   1.403       .  A
C1123      H1132   1.084       .  S
C1124      C1130   1.403       .  A
C1124      C1125   1.413       .  A
C1125      C1127   1.402       .  A
C1125      C1126   1.402       .  A
C1126      H1133   1.084       .  S
C1127      C1128   1.397       .  A
C1127      H1134   1.084       .  S
C1128      C1129   1.405       .  A
C1128      H1135   1.083       .  S
C1129      C1130   1.405       .  A
C1130      H1136   1.084       .  S
C1137      C1142   1.403   1_554  A
C1138      C1139   1.401   1_455  A
C1138      H1147   1.083       .  S
C1139      C1140   1.404       .  A
C1139      H1148   1.083       .  S
C1140      C1146   1.408       .  A
C1141      C1143   1.399       .  A
C1141      C1142   1.400   1_655  A
C1142      H1149   1.085       .  S
C1143      C1144   1.393       .  A
C1143      H1150   1.084       .  S
C1144      H1151   1.083       .  S
C1145      C1146   1.408       .  A
C1146      H1152   1.084       .  S
C1153      C1154   1.403       .  A
C1153      C1158   1.412       .  A
C1154      C1155   1.396       .  A
C1154      H1163   1.077       .  S
C1155      C1156   1.401       .  A
C1155      H1164   1.084       .  S
C1156      C1162   1.403       .  A
C1156      C1157   1.411       .  A
C1157      C1159   1.404       .  A
C1157      C1158   1.408       .  A
C1158      H1165   1.084       .  S
C1159      C1160   1.401       .  A
C1159      H1166   1.083       .  S
C1160      C1161   1.408       .  A
C1160      H1167   1.081       .  S
C1161      C1162   1.409       .  A
C1162      H1168   1.083       .  S
C1169      C1170   1.405       .  A
C1169      C1174   1.409       .  A
C1170      C1171   1.397       .  A
C1170      H1179   1.083       .  S
C1171      C1172   1.402       .  A
C1171      H1180   1.084       .  S
C1172      C1178   1.404       .  A
C1172      C1173   1.413       .  A
C1173      C1175   1.403       .  A
C1173      C1174   1.408       .  A
C1174      H1181   1.084       .  S
C1175      C1176   1.401       .  A
C1175      H1182   1.084       .  S
C1176      C1177   1.405       .  A
C1176      H1183   1.077       .  S
C1177      C1178   1.409       .  A
C1178      H1184   1.083       .  S
C1185      C1186   1.407       .  A
C1185      C1190   1.405       .  A
C1186      C1187   1.393       .  A
C1186      H1195   1.083       .  S
C1187      C1188   1.398       .  A
C1187      H1196   1.084       .  S
C1188      C1194   1.400       .  A
C1188      C1189   1.415       .  A
C1189      C1191   1.402       .  A
C1189      C1190   1.405       .  A
C1190      H1197   1.084       .  S
C1191      C1192   1.398       .  A
C1191      H1198   1.084       .  S
C1192      C1193   1.405       .  A
C1192      H1199   1.083       .  S
C1193      C1194   1.401       .  A
C1194      H1200   1.084       .  S
C1201      C1202   1.408       .  A
C1201      C1206   1.402       .  A
C1202      C1203   1.396       .  A
C1202      H1211   1.083       .  S
C1203      C1204   1.401       .  A
C1203      H1212   1.084       .  S
C1204      C1210   1.403       .  A
C1204      C1205   1.413       .  A
C1205      C1207   1.401       .  A
C1205      C1206   1.403       .  A
C1206      H1213   1.078       .  S
C1207      C1208   1.397       .  A
C1207      H1214   1.084       .  S
C1208      C1209   1.405       .  A
C1208      H1215   1.083       .  S
C1209      C1210   1.403       .  A
C1210      H1216   1.079       .  S
C1217      C1218   1.406       .  A
C1217      C1222   1.406       .  A
C1218      C1219   1.399       .  A
C1218      H1227   1.083       .  S
C1219      C1220   1.402       .  A
C1219      H1228   1.084       .  S
C1220      C1226   1.407       .  A
C1220      C1221   1.415       .  A
C1221      C1223   1.402       .  A
C1221      C1222   1.405       .  A
C1222      H1229   1.084       .  S
C1223      C1224   1.397       .  A
C1223      H1230   1.084       .  S
C1224      C1225   1.404       .  A
C1224      H1231   1.083       .  S
C1225      C1226   1.403       .  A
C1226      H1232   1.085       .  S
C1233      C1234   1.405       .  A
C1233      C1238   1.405       .  A
C1234      C1235   1.398       .  A
C1234      H1243   1.083       .  S
C1235      C1236   1.403       .  A
C1235      H1244   1.084       .  S
C1236      C1242   1.403       .  A
C1236      C1237   1.412       .  A
C1237      C1239   1.401       .  A
C1237      C1238   1.403       .  A
C1238      H1245   1.084       .  S
C1239      C1240   1.397       .  A
C1239      H1246   1.084       .  S
C1240      C1241   1.405       .  A
C1240      H1247   1.077       .  S
C1241      C1242   1.410       .  A
C1242      H1248   1.083       .  S
C1249      C1254   1.407       .  A
C1250      C1251   1.397       .  A
C1250      H1259   1.083       .  S
C1251      C1252   1.401       .  A
C1251      H1260   1.084       .  S
C1252      C1258   1.404       .  A
C1253      C1255   1.403   1_554  A
C1253      C1254   1.406       .  A
C1254      H1261   1.084   1_554  S
C1255      C1256   1.399       .  A
C1255      H1262   1.084       .  S
C1256      H1263   1.083       .  S
C1257      C1258   1.405       .  A
C1258      H1264   1.084       .  S
C1265      C1266   1.404       .  A
C1266      C1267   1.395       .  A
C1266      H1275   1.083       .  S
C1267      C1268   1.401       .  A
C1267      H1276   1.084       .  S
C1268      C1274   1.399       .  A
C1269      C1271   1.403       .  A
C1269      C1270   1.403       .  A
C1270      H1277   1.084       .  S
C1271      C1272   1.398       .  A
C1271      H1278   1.084       .  S
C1272      C1273   1.405       .  A
C1272      H1279   1.083       .  S
C1274      H1280   1.084       .  S
C1281      C1282   1.406       .  A
C1282      C1283   1.398   1_455  A
C1282      H1291   1.083       .  S
C1283      C1284   1.402       .  A
C1283      H1292   1.084       .  S
C1284      C1290   1.405       .  A
C1285      C1287   1.403       .  A
C1285      C1286   1.406   1_655  A
C1286      H1293   1.084       .  S
C1287      C1288   1.399       .  A
C1287      H1294   1.084       .  S
C1288      C1289   1.405       .  A
C1288      H1295   1.083       .  S
C1290      H1296   1.084       .  S
C1297      C1298   1.408       .  A
C1297      C1302   1.403       .  A
C1298      C1299   1.396       .  A
C1298      H1307   1.083       .  S
C1299      C1300   1.400       .  A
C1299      H1308   1.084       .  S
C1300      C1306   1.404       .  A
C1300      C1301   1.415       .  A
C1301      C1303   1.400       .  A
C1301      C1302   1.404       .  A
C1302      H1309   1.084       .  S
C1303      C1304   1.396       .  A
C1303      H1310   1.084       .  S
C1304      C1305   1.406       .  A
C1304      H1311   1.083       .  S
C1305      C1306   1.403       .  A
C1306      H1312   1.084       .  S
C1313      C1314   1.410       .  A
C1313      C1318   1.412       .  A
C1314      C1315   1.396       .  A
C1314      H1323   1.076       .  S
C1315      C1316   1.400   1_565  A
C1315      H1324   1.084       .  S
C1316      C1322   1.403       .  A
C1316      C1317   1.409   1_545  A
C1317      C1319   1.401   1_565  A
C1317      C1318   1.403       .  A
C1318      H1325   1.085       .  S
C1319      C1320   1.398       .  A
C1319      H1326   1.084   1_545  S
C1320      C1321   1.410       .  A
C1320      H1327   1.083       .  S
C1321      C1322   1.412       .  A
C1322      H1328   1.076       .  S
C1329      C1330   1.405       .  A
C1329      C1334   1.404       .  A
C1330      C1331   1.402       .  A
C1330      H1339   1.083       .  S
C1331      C1332   1.405       .  A
C1331      H1340   1.083       .  S
C1332      C1338   1.408       .  A
C1332      C1333   1.414       .  A
C1333      C1335   1.399       .  A
C1333      C1334   1.401       .  A
C1334      H1341   1.084       .  S
C1335      C1336   1.394       .  A
C1335      H1342   1.084       .  S
C1336      C1337   1.406       .  A
C1336      H1343   1.083       .  S
C1337      C1338   1.409       .  A
C1338      H1344   1.084       .  S
C1345      C1346   1.408       .  A
C1345      C1350   1.409       .  A
C1346      C1347   1.398       .  A
C1346      H1355   1.081       .  S
C1347      C1348   1.401       .  A
C1347      H1356   1.084       .  S
C1348      C1354   1.406       .  A
C1348      C1349   1.413       .  A
C1349      C1351   1.401       .  A
C1349      C1350   1.403       .  A
C1350      H1357   1.082       .  S
C1351      C1352   1.396       .  A
C1351      H1358   1.084       .  S
C1352      C1353   1.405       .  A
C1352      H1359   1.083       .  S
C1353      C1354   1.406       .  A
C1354      H1360   1.084       .  S
C1361      C1362   1.402       .  A
C1361      C1366   1.407       .  A
C1362      C1363   1.398       .  A
C1362      H1371   1.081       .  S
C1363      C1364   1.404       .  A
C1363      H1372   1.083       .  S
C1364      C1370   1.402       .  A
C1364      C1365   1.412       .  A
C1365      C1367   1.401       .  A
C1365      C1366   1.398       .  A
C1366      H1373   1.084       .  S
C1367      C1368   1.395       .  A
C1367      H1374   1.084       .  S
C1368      C1369   1.402       .  A
C1368      H1375   1.078       .  S
C1369      C1370   1.407       .  A
C1370      H1376   1.084       .  S
C1377      C1378   1.410       .  A
C1377      C1382   1.411       .  A
C1378      C1379   1.394   1_565  A
C1378      H1387   1.083       .  S
C1379      C1380   1.398       .  A
C1379      H1388   1.084       .  S
C1380      C1386   1.402       .  A
C1380      C1381   1.411       .  A
C1381      C1383   1.399       .  A
C1381      C1382   1.405   1_545  A
C1382      H1389   1.078       .  S
C1383      C1384   1.397       .  A
C1383      H1390   1.084       .  S
C1384      C1385   1.414       .  A
C1384      H1391   1.076       .  S
C1385      C1386   1.408       .  A
C1386      H1392   1.085       .  S
C1393      C1394   1.407       .  A
C1393      C1398   1.408       .  A
C1394      C1395   1.398       .  A
C1394      H1403   1.082       .  S
C1395      C1396   1.401       .  A
C1395      H1404   1.084       .  S
C1396      C1402   1.406       .  A
C1396      C1397   1.413       .  A
C1397      C1399   1.402       .  A
C1397      C1398   1.406       .  A
C1398      H1405   1.083       .  S
C1399      C1400   1.398       .  A
C1399      H1406   1.084       .  S
C1400      C1401   1.405       .  A
C1400      H1407   1.083       .  S
C1401      C1402   1.407       .  A
C1402      H1408   1.084       .  S
C1409      C1410   1.406       .  A
C1409      C1414   1.406       .  A
C1410      C1411   1.400       .  A
C1410      H1419   1.083       .  S
C1411      C1412   1.403       .  A
C1411      H1420   1.083       .  S
C1412      C1418   1.408       .  A
C1412      C1413   1.414       .  A
C1413      C1415   1.401       .  A
C1413      C1414   1.406       .  A
C1414      H1421   1.084       .  S
C1415      C1416   1.397       .  A
C1415      H1422   1.084       .  S
C1416      C1417   1.407       .  A
C1416      H1423   1.083       .  S
C1417      C1418   1.407       .  A
C1418      H1424   1.082       .  S
