geometry optimzed in LAMMPS
_audit_creation_date              2020-11-30 
_audit_creation_method            'lammps2cif' 
_symmetry_space_group_name_H-M    'P1' 
_symmetry_Int_Tables_number       1 
_symmetry_cell_setting            triclinic 
loop_ 
_symmetry_equiv_pos_as_xyz 
  x,y,z 
_cell_length_a                    41.55053754859088 
_cell_length_b                    41.7571054701043 
_cell_length_c                    41.397959684455714 
_cell_angle_alpha                 89.96687639994893 
_cell_angle_beta                  89.96538713084678 
_cell_angle_gamma                 89.95135908719931 
loop_ 
_atom_site_label 
_atom_site_type_symbol 
_atom_site_fract_x 
_atom_site_fract_y 
_atom_site_fract_z 
_atom_site_charge 
C1          C  0.13009619  0.75039604  0.36276918    -0.00650
C2          C  0.72910616  0.15068533  0.65911557    -0.00650
C3          C  0.33369810  0.14901260  0.76368703    -0.00650
C4          C  0.13353516  0.64767668  0.76672970    -0.00650
C5          C  0.62949381  0.75315604  0.16317277    -0.00650
C6          C  0.73280344  0.35808227  0.16622587    -0.00650
C7          C  0.12897575  0.75257734  0.66757620    -0.00650
C8          C  0.73105096  0.14693041  0.36408769    -0.00650
C9          C  0.62863792  0.15415511  0.76656043    -0.00650
C10         C  0.12806952  0.35612202  0.76514769    -0.00650
C11         C  0.33209781  0.75180506  0.16287148    -0.00650
C12         C  0.72938244  0.65031485  0.16070805    -0.00650
C13         C  0.33285805  0.75278000  0.86383819    -0.00650
C14         C  0.72823965  0.65584061  0.86467168    -0.00650
C15         C  0.82716231  0.35545484  0.76402894    -0.00650
C16         C  0.62463496  0.85756680  0.76464604    -0.00650
C17         C  0.73254470  0.85455117  0.36565561    -0.00650
C18         C  0.83539867  0.75461984  0.66577539    -0.00650
C19         C  0.62371234  0.75449126  0.86626556    -0.00650
C20         C  0.73016906  0.35758943  0.87015101    -0.00650
C21         C  0.83449657  0.64903902  0.76611400    -0.00650
C22         C  0.33431958  0.85316196  0.76078020    -0.00650
C23         C  0.73015318  0.85328785  0.66303066    -0.00650
O24         O  0.85610688  0.64928563  0.48373882    -0.69940
O25         O  0.85806203  0.58395835  0.54760753    -0.70160
O26         O  0.85700376  0.58483711  0.48287357    -0.70020
O27         O  0.85749656  0.64844461  0.54822741    -0.70020
O28         O  0.80533012  0.64829065  0.54962252    -0.69980
O29         O  0.80471579  0.58433035  0.48352555    -0.70000
O30         O  0.80574297  0.58355536  0.54834086    -0.69940
O31         O  0.80376664  0.64902219  0.48520931    -0.70130
V32         V  0.85613601  0.61663169  0.51566837     1.35240
V33         V  0.80589392  0.61626157  0.51668691     1.35170
C34         C  0.82954077  0.66033860  0.47391534     0.79300
C35         C  0.83211721  0.57243648  0.55851255     0.79360
C36         C  0.83090751  0.57357817  0.47212260     0.79230
C37         C  0.83169389  0.65980200  0.55967412     0.79190
O38         O  0.80538007  0.53493672  0.65689198    -0.69940
O39         O  0.80581390  0.47066665  0.59230953    -0.70160
O40         O  0.80512299  0.47087525  0.65693480    -0.70020
O41         O  0.80601393  0.53503740  0.59237130    -0.70020
O42         O  0.85832902  0.53563766  0.59350885    -0.69980
O43         O  0.85736237  0.46946788  0.65649176    -0.70000
O44         O  0.85815927  0.47130059  0.59197356    -0.69940
O45         O  0.85752141  0.53360867  0.65799003    -0.70130
V46         V  0.80659164  0.50284242  0.62457961     1.35240
V47         V  0.85683815  0.50252065  0.62497563     1.35170
C48         C  0.83148376  0.54521903  0.66854407     0.79300
C49         C  0.83209662  0.46003210  0.58130457     0.79360
C50         C  0.83102024  0.45908853  0.66762687     0.79230
C51         C  0.83225072  0.54666031  0.58240119     0.79190
O52         O  0.62037003  0.12157934  0.47750520    -0.69940
O53         O  0.55900677  0.12573540  0.54516813    -0.70160
O54         O  0.55596670  0.12438521  0.48003605    -0.70020
O55         O  0.62339976  0.12297431  0.54195801    -0.70020
O56         O  0.62409388  0.17490490  0.54216653    -0.69980
O57         O  0.55940446  0.17624917  0.47734083    -0.70000
O58         O  0.55952904  0.17772447  0.54269005    -0.69940
O59         O  0.62437838  0.17349378  0.47797027    -0.70130
V60         V  0.58962500  0.12468057  0.51114152     1.35240
V61         V  0.59168560  0.17460815  0.51001051     1.35170
C62         C  0.63356976  0.14676273  0.46704718     0.79300
C63         C  0.54898695  0.15237660  0.55563287     0.79360
C64         C  0.54666486  0.15048640  0.46763284     0.79230
C65         C  0.63537328  0.14873351  0.55256094     0.79190
O66         O  0.45068765  0.18006673  0.65885493    -0.69940
O67         O  0.51428167  0.17971678  0.59248600    -0.70160
O68         O  0.44978548  0.17878746  0.59412979    -0.70020
O69         O  0.51504020  0.18182440  0.65782190    -0.70020
O70         O  0.51516367  0.12989890  0.66075156    -0.69980
O71         O  0.45128954  0.12675902  0.59441883    -0.70000
O72         O  0.51597965  0.12775403  0.59506394    -0.69940
O73         O  0.45123695  0.12810021  0.65917576    -0.70130
V74         V  0.48255690  0.17908262  0.62582419     1.35240
V75         V  0.48354649  0.12912670  0.62724128     1.35170
C76         C  0.44009790  0.15395716  0.67023182     0.79300
C77         C  0.52555049  0.15345937  0.58218367     0.79360
C78         C  0.43927161  0.15248233  0.58352429     0.79230
C79         C  0.52523081  0.15660400  0.67120846     0.79190
O80         O  0.10804837  0.47199869  0.66194896    -0.69940
O81         O  0.10414521  0.53407380  0.59493198    -0.70160
O82         O  0.10413887  0.46942746  0.59706933    -0.70020
O83         O  0.10815213  0.53574580  0.65944548    -0.70020
O84         O  0.16044463  0.53290808  0.65917116    -0.69980
O85         O  0.15615340  0.47156465  0.59173686    -0.70000
O86         O  0.15641397  0.53617446  0.59432619    -0.69940
O87         O  0.16001741  0.46910800  0.65612582    -0.70130
V88         V  0.10709171  0.50275984  0.62822589     1.35240
V89         V  0.15726494  0.50249342  0.62528872     1.35170
C90         C  0.13469065  0.45993221  0.67018726     0.79300
C91         C  0.12967264  0.54644329  0.58397032     0.79360
C92         C  0.12954802  0.45925779  0.58373161     0.79230
C93         C  0.13493191  0.54488143  0.67049395     0.79190
O94         O  0.15271994  0.64625403  0.48220204    -0.69940
O95         O  0.15427495  0.58398120  0.54878804    -0.70160
O96         O  0.15350698  0.58216287  0.48407559    -0.70020
O97         O  0.15320190  0.64863636  0.54720216    -0.70020
O98         O  0.10099117  0.64701599  0.54850884    -0.69980
O99         O  0.10120161  0.58209666  0.48393476    -0.70000
O100        O  0.10199529  0.58246072  0.54880037    -0.69940
O101        O  0.10049571  0.64630328  0.48265973    -0.70130
V102        V  0.15237042  0.61530541  0.51562187     1.35240
V103        V  0.10215447  0.61460992  0.51603260     1.35170
C104        C  0.12656639  0.65653553  0.47056918     0.79300
C105        C  0.12851732  0.57205151  0.55961833     0.79360
C106        C  0.12739336  0.57097887  0.47318045     0.79230
C107        C  0.12701861  0.65881252  0.55905197     0.79190
O108        O  0.51250571  0.83279190  0.65489857    -0.69940
O109        O  0.44757585  0.83249090  0.59025775    -0.70160
O110        O  0.51219237  0.83164125  0.58995029    -0.70020
O111        O  0.44892136  0.83273168  0.65499860    -0.70020
O112        O  0.44857080  0.88463602  0.65487600    -0.69980
O113        O  0.51281819  0.88371537  0.58947711    -0.70000
O114        O  0.44795634  0.88454070  0.58968969    -0.69940
O115        O  0.51240181  0.88473478  0.65437148    -0.70130
V116        V  0.48029829  0.83344966  0.62237998     1.35240
V117        V  0.48042809  0.88343233  0.62195036     1.35170
C118        C  0.52266967  0.85894073  0.66648031     0.79300
C119        C  0.43654181  0.85854723  0.57918820     0.79360
C120        C  0.52359125  0.85735248  0.57891319     0.79230
C121        C  0.43871629  0.85856183  0.66692234     0.79190
O122        O  0.62717592  0.87851295  0.54386753    -0.69940
O123        O  0.56010826  0.88314318  0.48075595    -0.70160
O124        O  0.56229417  0.88195768  0.54544473    -0.70020
O125        O  0.62481299  0.88094874  0.47939291    -0.70020
O126        O  0.62575293  0.82890647  0.48033848    -0.69980
O127        O  0.55788364  0.83017032  0.54216385    -0.70000
O128        O  0.56063158  0.83121752  0.47743724    -0.69940
O129        O  0.62239593  0.82674386  0.54485468    -0.70130
V130        V  0.59357306  0.88015515  0.51237404     1.35240
V131        V  0.59165418  0.83024104  0.51116225     1.35170
C132        C  0.63609676  0.85167031  0.55518517     0.79300
C133        C  0.54911302  0.85770834  0.46822011     0.79360
C134        C  0.54890706  0.85643283  0.55451283     0.79230
C135        C  0.63667154  0.85502293  0.46932491     0.79190
O136        O  0.62390925  0.53453855  0.13617734    -0.69940
O137        O  0.56123793  0.46842497  0.13555119    -0.70160
O138        O  0.55927850  0.53322892  0.13515614    -0.70020
O139        O  0.62621027  0.47084208  0.13748915    -0.70020
O140        O  0.62345692  0.47044381  0.18983166    -0.69980
O141        O  0.55967904  0.53480950  0.18763008    -0.70000
O142        O  0.55885711  0.46986880  0.18794510    -0.69940
O143        O  0.62462964  0.53396827  0.18868215    -0.70130
V144        V  0.59252262  0.50170646  0.13708957     1.35240
V145        V  0.59149273  0.50226238  0.18748991     1.35170
C146        C  0.63561069  0.54480456  0.16232176     0.79300
C147        C  0.54941685  0.45769271  0.16152610     0.79360
C148        C  0.54880646  0.54529095  0.16119654     0.79230
C149        C  0.63672100  0.46065751  0.16430898     0.79190
O150        O  0.51401150  0.64852994  0.18604966    -0.69940
O151        O  0.45094353  0.58236353  0.18989436    -0.70160
O152        O  0.51544390  0.58355257  0.18740393    -0.70020
O153        O  0.44983597  0.64713992  0.18838162    -0.70020
O154        O  0.44947607  0.64691987  0.13600613    -0.69980
O155        O  0.51260144  0.58109898  0.13504223    -0.70000
O156        O  0.44815592  0.58239891  0.13748499    -0.69940
O157        O  0.51393601  0.64565723  0.13364280    -0.70130
V158        V  0.48258193  0.61531856  0.18692536     1.35240
V159        V  0.48103574  0.61406742  0.13656473     1.35170
C160        C  0.52458095  0.65843842  0.15918835     0.79300
C161        C  0.43880188  0.57115086  0.16427878     0.79360
C162        C  0.52466256  0.57101899  0.16113998     0.79230
C163        C  0.43899996  0.65848980  0.16223373     0.79190
O164        O  0.44725434  0.64577891  0.84203479    -0.69940
O165        O  0.51113838  0.58140374  0.84589133    -0.70160
O166        O  0.44641828  0.58138102  0.84536876    -0.70020
O167        O  0.51111662  0.64570306  0.84324404    -0.70020
O168        O  0.51167534  0.64645353  0.89568152    -0.69980
O169        O  0.44465021  0.58493805  0.89771216    -0.70000
O170        O  0.50955188  0.58211092  0.89835549    -0.69940
O171        O  0.44766013  0.64989024  0.89427337    -0.70130
V172        V  0.47893583  0.61348648  0.84518883     1.35240
V173        V  0.47829820  0.61570626  0.89553667     1.35170
C174        C  0.43758986  0.65990451  0.86717099     0.79300
C175        C  0.52142937  0.57085762  0.87253969     0.79360
C176        C  0.43444567  0.57230220  0.87196232     0.79230
C177        C  0.52210618  0.65730236  0.86921107     0.79190
O178        O  0.62816093  0.47554909  0.89628444    -0.69940
O179        O  0.55800817  0.53482095  0.89868573    -0.70160
O180        O  0.56312131  0.47041412  0.89727323    -0.70020
O181        O  0.62256864  0.53981541  0.89775070    -0.70020
O182        O  0.62377793  0.53853676  0.84530329    -0.69980
O183        O  0.56055632  0.47324262  0.84490928    -0.70000
O184        O  0.55919641  0.53734932  0.84626408    -0.69940
O185        O  0.62511808  0.47451555  0.84394779    -0.70130
V186        V  0.59294193  0.50508829  0.89655165     1.35240
V187        V  0.59217055  0.50591973  0.84616554     1.35170
C188        C  0.63836280  0.46468660  0.86958626     0.79300
C189        C  0.54711732  0.54657638  0.87270552     0.79360
C190        C  0.55120984  0.46055170  0.87096053     0.79230
C191        C  0.63375379  0.55051955  0.87146968     0.79190
C192        C  0.62757159  0.15574576  0.26458775    -0.00650
C193        C  0.63061702  0.85341540  0.26408395    -0.00650
O194        O  0.65447499  0.97391788  0.87217287    -0.69940
O195        O  0.65278788  0.03733016  0.93790238    -0.70160
O196        O  0.65171500  0.97295652  0.93681375    -0.70020
O197        O  0.65561352  0.03796545  0.87300148    -0.70020
O198        O  0.60343301  0.03769482  0.86919365    -0.69980
O199        O  0.59945008  0.97499841  0.93600607    -0.70000
O200        O  0.60063969  0.03969547  0.93462371    -0.69940
O201        O  0.60222837  0.97405029  0.87120920    -0.70130
V202        V  0.65261367  0.00561463  0.90498282     1.35240
V203        V  0.60242125  0.00664362  0.90289035     1.35170
C204        C  0.62854918  0.96322583  0.86045711     0.79300
C205        C  0.62651124  0.04945103  0.94734293     0.79360
C206        C  0.62501061  0.96276298  0.94715987     0.79230
C207        C  0.63031328  0.04819656  0.85957610     0.79190
O208        O  0.64963008  0.86258182  0.04801890    -0.69940
O209        O  0.65010523  0.92543358  0.98211354    -0.70160
O210        O  0.64997652  0.92657350  0.04704740    -0.70020
O211        O  0.64961329  0.86062669  0.98328379    -0.70020
O212        O  0.59746029  0.86191693  0.98256507    -0.69980
O213        O  0.59767703  0.92616054  0.04757460    -0.70000
O214        O  0.59781677  0.92667618  0.98261647    -0.69940
O215        O  0.59740698  0.86183896  0.04743228    -0.70130
V216        V  0.64880337  0.89383136  0.01500349     1.35240
V217        V  0.59859217  0.89415643  0.01496783     1.35170
C218        C  0.62357969  0.85156065  0.05913036     0.79300
C219        C  0.62414662  0.93724906  0.97158000     0.79360
C220        C  0.62382509  0.93713056  0.05854788     0.79230
C221        C  0.62338741  0.84959374  0.97237541     0.79190
C222        C  0.62955403  0.25455644  0.86952449    -0.00650
O223        O  0.65542551  0.14667496  0.98544655    -0.69940
O224        O  0.65081931  0.08306884  0.05085469    -0.70160
O225        O  0.65248227  0.08244725  0.98593684    -0.70020
O226        O  0.65392988  0.14731952  0.04996711    -0.70020
O227        O  0.60160386  0.14695741  0.05159048    -0.69980
O228        O  0.60051284  0.08709024  0.98225833    -0.70000
O229        O  0.59862384  0.08302728  0.04744631    -0.69940
O230        O  0.60339809  0.15192305  0.98697981    -0.70130
V231        V  0.65213845  0.11487315  0.01804026     1.35240
V232        V  0.60197721  0.11717281  0.01697682     1.35170
C233        C  0.63030880  0.16083392  0.97581027     0.79300
C234        C  0.62401938  0.07208505  0.06020395     0.79360
C235        C  0.62638498  0.07405189  0.97279288     0.79230
C236        C  0.62803939  0.15773009  0.06199948     0.79190
O237        O  0.59648527  0.96954749  0.15911227    -0.69940
O238        O  0.59657217  0.03714500  0.09699897    -0.70160
O239        O  0.59722516  0.97282875  0.09431199    -0.70020
O240        O  0.59526776  0.03391016  0.16251673    -0.70020
O241        O  0.64747967  0.03666220  0.16081474    -0.69980
O242        O  0.64944993  0.97130076  0.09688232    -0.70000
O243        O  0.64884315  0.03549049  0.09605141    -0.69940
O244        O  0.64864489  0.97260567  0.16207816    -0.70130
V245        V  0.59734875  0.00340225  0.12827866     1.35240
V246        V  0.64757445  0.00397416  0.12898159     1.35170
C247        C  0.62266704  0.95999481  0.17140805     0.79300
C248        C  0.62292202  0.04723519  0.08540779     0.79360
C249        C  0.62357220  0.96142655  0.08424077     0.79230
C250        C  0.62111216  0.04617060  0.17276827     0.79190
C251        C  0.63056108  0.25484214  0.16442327    -0.00650
O252        O  0.30304205  0.85650040  0.98197953    -0.69940
O253        O  0.30539908  0.91993031  0.04741838    -0.70160
O254        O  0.30352764  0.92097978  0.98266288    -0.70020
O255        O  0.30528404  0.85539110  0.04631686    -0.70020
O256        O  0.35752166  0.85657965  0.04600583    -0.69980
O257        O  0.35575678  0.91933860  0.97996943    -0.70000
O258        O  0.35763070  0.92101920  0.04476354    -0.69940
O259        O  0.35534561  0.85456819  0.98167330    -0.70130
V260        V  0.30533579  0.88821925  0.01459908     1.35240
V261        V  0.35556808  0.88791925  0.01310055     1.35170
C262        C  0.32868497  0.84422911  0.97128121     0.79300
C263        C  0.33177889  0.93162961  0.05691501     0.79360
C264        C  0.32945032  0.93123872  0.97044411     0.79230
C265        C  0.33176387  0.84467002  0.05682475     0.79190
O266        O  0.35485254  0.96721051  0.87018221    -0.69940
O267        O  0.35672735  0.03170303  0.93440837    -0.70160
O268        O  0.35548130  0.96719350  0.93473990    -0.70020
O269        O  0.35610359  0.03134735  0.87009724    -0.70020
O270        O  0.30387436  0.03226965  0.87012223    -0.69980
O271        O  0.30317193  0.96797195  0.93516202    -0.70000
O272        O  0.30441973  0.03273252  0.93472612    -0.69940
O273        O  0.30262752  0.96791647  0.87000507    -0.70130
V274        V  0.35473396  0.99931993  0.90236656     1.35240
V275        V  0.30449938  0.00016543  0.90258079     1.35170
C276        C  0.32864689  0.95654112  0.85902502     0.79300
C277        C  0.33088684  0.04371058  0.94496839     0.79360
C278        C  0.32927118  0.95648402  0.94580335     0.79230
C279        C  0.33019265  0.04304330  0.85933448     0.79190
C280        C  0.33218878  0.85569035  0.26288762    -0.00650
O281        O  0.35751328  0.03490051  0.15490565    -0.69940
O282        O  0.35812024  0.96894688  0.09154022    -0.70160
O283        O  0.35748801  0.03344720  0.09021791    -0.70020
O284        O  0.35809053  0.97077069  0.15648976    -0.70020
O285        O  0.30583214  0.97092062  0.15746651    -0.69980
O286        O  0.30518220  0.03263042  0.08977560    -0.70000
O287        O  0.30582535  0.96807656  0.09235953    -0.69940
O288        O  0.30527896  0.03469147  0.15446541    -0.70130
V289        V  0.35679434  0.00197127  0.12325232     1.35240
V290        V  0.30655354  0.00153880  0.12341698     1.35170
C291        C  0.33122175  0.04591341  0.16558751     0.79300
C292        C  0.33200894  0.95719199  0.08129987     0.79360
C293        C  0.33126045  0.04402303  0.07902236     0.79230
C294        C  0.33214371  0.96054087  0.16867586     0.79190
O295        O  0.30700128  0.14540235  0.04430829    -0.69940
O296        O  0.30578395  0.08203178  0.97887843    -0.70160
O297        O  0.30552230  0.08099838  0.04347381    -0.70020
O298        O  0.30768311  0.14692280  0.97958195    -0.70020
O299        O  0.35984801  0.14505517  0.97984324    -0.69980
O300        O  0.35782545  0.08006186  0.04389379    -0.70000
O301        O  0.35807121  0.08039336  0.97935666    -0.69940
O302        O  0.35921492  0.14432922  0.04485976    -0.70130
V303        V  0.30751751  0.11383925  0.01151162     1.35240
V304        V  0.35772483  0.11253889  0.01190755     1.35170
C305        C  0.33316194  0.15565787  0.05587448     0.79300
C306        C  0.33164545  0.06981132  0.96861554     0.79360
C307        C  0.33143300  0.06930256  0.05440769     0.79230
C308        C  0.33426493  0.15751675  0.96903363     0.79190
C309        C  0.33656088  0.25381594  0.86376367    -0.00650
C310        C  0.12525699  0.64826890  0.26454524    -0.00650
C311        C  0.82927884  0.64962757  0.26267674    -0.00650
O312        O  0.01800444  0.66613201  0.86914577    -0.69940
O313        O  0.95397592  0.67312930  0.93537581    -0.70160
O314        O  0.01885183  0.66904836  0.93464739    -0.70020
O315        O  0.95388622  0.67074877  0.87063231    -0.70020
O316        O  0.95154686  0.61889791  0.87156130    -0.69980
O317        O  0.01482627  0.61725037  0.93784958    -0.70000
O318        O  0.95004402  0.62126383  0.93610226    -0.69940
O319        O  0.01583109  0.61425703  0.87277093    -0.70130
V320        V  0.98625357  0.66876628  0.90255192     1.35240
V321        V  0.98316843  0.61893255  0.90458903     1.35170
C322        C  0.02741200  0.63889931  0.85944975     0.79300
C323        C  0.94044855  0.64817189  0.94627654     0.79360
C324        C  0.02760011  0.64301845  0.94751496     0.79230
C325        C  0.94169249  0.64519586  0.85999762     0.79190
O326        O  0.83540470  0.62297477  0.04301535    -0.69940
O327        O  0.90011815  0.62391510  0.97843131    -0.70160
O328        O  0.90011956  0.62074112  0.04303356    -0.70020
O329        O  0.83512875  0.62706002  0.97854891    -0.70020
O330        O  0.83940644  0.67890571  0.97929384    -0.69980
O331        O  0.90033045  0.67263142  0.04716254    -0.70000
O332        O  0.90429910  0.67561626  0.98242571    -0.69940
O333        O  0.83518992  0.67500934  0.04402052    -0.70130
V334        V  0.86773376  0.62470368  0.01071412     1.35240
V335        V  0.86975941  0.67457332  0.01320697     1.35170
C336        C  0.82383266  0.64863979  0.05414662     0.79300
C337        C  0.91390981  0.64954795  0.97000337     0.79360
C338        C  0.91115153  0.64579633  0.05615042     0.79230
C339        C  0.82611351  0.65413815  0.96809001     0.79190
C340        C  0.23109227  0.64943148  0.87085529    -0.00650
O341        O  0.12317284  0.67019472  0.05279775    -0.69940
O342        O  0.06188392  0.66920551  0.98494489    -0.70160
O343        O  0.05878608  0.66822857  0.04976616    -0.70020
O344        O  0.12646356  0.67131185  0.98848888    -0.70020
O345        O  0.12728675  0.61929807  0.98726391    -0.69980
O346        O  0.06054983  0.61618001  0.04968993    -0.70000
O347        O  0.06270333  0.61715677  0.98482899    -0.69940
O348        O  0.12507235  0.61822921  0.05207040    -0.70130
V349        V  0.09252386  0.66870175  0.01900236     1.35240
V350        V  0.09391077  0.61870875  0.01845672     1.35170
C351        C  0.13485869  0.64444740  0.06376254     0.79300
C352        C  0.05176476  0.64305668  0.97340240     0.79360
C353        C  0.04837316  0.64180362  0.06032788     0.79230
C354        C  0.13830158  0.64576937  0.97733429     0.79190
O355        O  0.00771899  0.61360450  0.15933842    -0.69940
O356        O  0.94585961  0.61738887  0.09180064    -0.70160
O357        O  0.01064255  0.61523870  0.09428891    -0.70020
O358        O  0.94344130  0.61616797  0.15653694    -0.70020
O359        O  0.94565001  0.66809756  0.15735111    -0.69980
O360        O  0.01222925  0.66727216  0.09580012    -0.70000
O361        O  0.94777733  0.66939479  0.09306543    -0.69940
O362        O  0.00941889  0.66563588  0.16075103    -0.70130
V363        V  0.97698762  0.61656110  0.12547120     1.35240
V364        V  0.97877959  0.66654261  0.12665866     1.35170
C365        C  0.01869503  0.63896074  0.17179087     0.79300
C366        C  0.93596149  0.64405914  0.08130166     0.79360
C367        C  0.02273493  0.64126941  0.08444654     0.79230
C368        C  0.93337279  0.64250627  0.16769816     0.79190
C369        C  0.23137076  0.64790265  0.16790301    -0.00650
O370        O  0.83451601  0.38118044  0.98641480    -0.69940
O371        O  0.90390600  0.38365775  0.04652385    -0.70160
O372        O  0.89930711  0.38211068  0.98176084    -0.70020
O373        O  0.83948058  0.38319944  0.05082484    -0.70020
O374        O  0.83740633  0.33117409  0.05002403    -0.69980
O375        O  0.90220358  0.33022248  0.98506525    -0.70000
O376        O  0.90251497  0.33173260  0.04995388    -0.69940
O377        O  0.83772214  0.32919987  0.98549464    -0.70130
V378        V  0.86933784  0.38155084  0.01637731     1.35240
V379        V  0.86998365  0.33157137  0.01768187     1.35170
C380        C  0.82469247  0.35464276  0.97548901     0.79300
C381        C  0.91466340  0.35803514  0.05881739     0.79360
C382        C  0.91131192  0.35605651  0.97198403     0.79230
C383        C  0.82757424  0.35749490  0.06149597     0.79190
O384        O  0.00878686  0.38126333  0.86752747    -0.69940
O385        O  0.94601224  0.38180068  0.93447433    -0.70160
O386        O  0.01069424  0.38188224  0.93280936    -0.70020
O387        O  0.94436062  0.38105371  0.86957457    -0.70020
O388        O  0.94434632  0.32906334  0.87022097    -0.69980
O389        O  0.01042358  0.32983935  0.93362624    -0.70000
O390        O  0.94601614  0.32974350  0.93501023    -0.69940
O391        O  0.00914566  0.32926885  0.86865914    -0.70130
V392        V  0.97747959  0.38050445  0.90112953     1.35240
V393        V  0.97751635  0.33051231  0.90180055     1.35170
C394        C  0.01969887  0.35510607  0.85669915     0.79300
C395        C  0.93538022  0.35586583  0.94609491     0.79360
C396        C  0.02156643  0.35593553  0.94424724     0.79230
C397        C  0.93300621  0.35493699  0.85914039     0.79190
O398        O  0.95026720  0.38531458  0.15929537    -0.69940
O399        O  0.01525934  0.38612494  0.09397762    -0.70160
O400        O  0.95049505  0.38505729  0.09430766    -0.70020
O401        O  0.01484875  0.38695852  0.15959288    -0.70020
O402        O  0.01474725  0.33501940  0.16159946    -0.69980
O403        O  0.95252231  0.33305490  0.09392991    -0.70000
O404        O  0.01708275  0.33415438  0.09602940    -0.69940
O405        O  0.95078673  0.33343201  0.15838692    -0.70130
V406        V  0.98283838  0.38490785  0.12678921     1.35240
V407        V  0.98390807  0.33496948  0.12740231     1.35170
C408        C  0.93931646  0.35898124  0.16982409     0.79300
C409        C  0.02681055  0.36000235  0.08357185     0.79360
C410        C  0.94036778  0.35874917  0.08320710     0.79230
C411        C  0.02486268  0.36142867  0.17267115     0.79190
C412        C  0.83596077  0.35169088  0.26922975    -0.00650
O413        O  0.12043424  0.32654952  0.97804471    -0.69940
O414        O  0.06027413  0.33219029  0.04673205    -0.70160
O415        O  0.05613026  0.32990899  0.98171929    -0.70020
O416        O  0.12475815  0.32923875  0.04238139    -0.70020
O417        O  0.12581122  0.38111883  0.04158064    -0.69980
O418        O  0.05937911  0.38176995  0.97863924    -0.70000
O419        O  0.06109407  0.38414791  0.04392915    -0.69940
O420        O  0.12414227  0.37845295  0.97739550    -0.70130
V421        V  0.09030967  0.33050182  0.01223248     1.35240
V422        V  0.09245153  0.38039364  0.01038410     1.35170
C423        C  0.13338633  0.35151897  0.96685910     0.79300
C424        C  0.05045488  0.35893761  0.05711224     0.79360
C425        C  0.04664385  0.35591635  0.96925493     0.79230
C426        C  0.13731987  0.35509842  0.05208767     0.79190
C427        C  0.23203899  0.35300063  0.86455748    -0.00650
C428        C  0.12355201  0.25147180  0.66606474    -0.00650
C429        C  0.82883955  0.25341992  0.66205280    -0.00650
O430        O  0.95041764  0.86033662  0.68445325    -0.69940
O431        O  0.01305007  0.92616036  0.68393294    -0.70160
O432        O  0.94844069  0.92439257  0.68379652    -0.70020
O433        O  0.01429377  0.86206042  0.68458123    -0.70020
O434        O  0.01401640  0.86018032  0.63225759    -0.69980
O435        O  0.94927188  0.92477956  0.63128390    -0.70000
O436        O  0.01416133  0.92481163  0.63145274    -0.69940
O437        O  0.94952887  0.86044554  0.63201608    -0.70130
V438        V  0.98157451  0.89329755  0.68311555     1.35240
V439        V  0.98177554  0.89264893  0.63270361     1.35170
C440        C  0.93940522  0.84902800  0.65842404     0.79300
C441        C  0.02451593  0.93646419  0.65764298     0.79360
C442        C  0.93750215  0.93508921  0.65746487     0.79230
C443        C  0.02482498  0.84972331  0.65882080     0.79190
O444        O  0.83649392  0.96795483  0.63212976    -0.69940
O445        O  0.89818232  0.03483306  0.63304627    -0.70160
O446        O  0.90104067  0.97071117  0.63170191    -0.70020
O447        O  0.83367809  0.03212066  0.63367322    -0.70020
O448        O  0.83569448  0.03300968  0.68604444    -0.69980
O449        O  0.89957249  0.96811316  0.68414274    -0.70000
O450        O  0.90015788  0.03221906  0.68546992    -0.69940
O451        O  0.83469282  0.96896662  0.68459500    -0.70130
V452        V  0.86732341  0.00139243  0.63363929     1.35240
V453        V  0.86754456  0.00050742  0.68405887     1.35170
C454        C  0.82457265  0.95760647  0.65819576     0.79300
C455        C  0.90991905  0.04459492  0.65942900     0.79360
C456        C  0.91165986  0.95890711  0.65771897     0.79230
C457        C  0.82357189  0.04349129  0.66013842     0.79190
C458        C  0.22852113  0.85720287  0.65976977    -0.00650
O459        O  0.12239477  0.03905687  0.63158247    -0.69940
O460        O  0.05996092  0.97272295  0.63147414    -0.70160
O461        O  0.05775843  0.03704090  0.63200024    -0.70020
O462        O  0.12467028  0.97467283  0.63148935    -0.70020
O463        O  0.12496019  0.97439375  0.68395731    -0.69980
O464        O  0.05831305  0.03677928  0.68449947    -0.70000
O465        O  0.06000847  0.97251277  0.68398557    -0.69940
O466        O  0.12302267  0.03818124  0.68406990    -0.70130
V467        V  0.09122340  0.00585197  0.63264576     1.35240
V468        V  0.09151149  0.00547542  0.68308860     1.35170
C469        C  0.13361649  0.04958495  0.65785888     0.79300
C470        C  0.04919434  0.96152474  0.65769848     0.79360
C471        C  0.04669819  0.04752221  0.65844909     0.79230
C472        C  0.13631289  0.96401271  0.65765378     0.79190
O473        O  0.00736687  0.14659797  0.68708959    -0.69940
O474        O  0.94578765  0.07970458  0.68615092    -0.70160
O475        O  0.01036416  0.08230778  0.68560608    -0.70020
O476        O  0.94291301  0.14392327  0.68772951    -0.70020
O477        O  0.94395251  0.14645586  0.63538024    -0.69980
O478        O  0.00889857  0.08228904  0.63312549    -0.70000
O479        O  0.94419354  0.08208749  0.63370584    -0.69940
O480        O  0.00840591  0.14653278  0.63466349    -0.70130
V481        V  0.97662492  0.11312654  0.68562593     1.35240
V482        V  0.97632739  0.11429578  0.63522443     1.35170
C483        C  0.01854636  0.15785930  0.66104969     0.79300
C484        C  0.93428495  0.06978914  0.65972941     0.79360
C485        C  0.02094905  0.07166377  0.65903710     0.79230
C486        C  0.93232065  0.15617222  0.66189231     0.79190
C487        C  0.22910181  0.15316364  0.66531008    -0.00650
O488        O  0.83956508  0.03262732  0.39641047    -0.69940
O489        O  0.90517800  0.96881057  0.39699749    -0.70160
O490        O  0.90436920  0.03344436  0.39720062    -0.70020
O491        O  0.84044019  0.96832786  0.39698665    -0.70020
O492        O  0.83885941  0.96970243  0.34454433    -0.69980
O493        O  0.90581775  0.03213272  0.34475160    -0.70000
O494        O  0.90375049  0.96765217  0.34451537    -0.69940
O495        O  0.84155541  0.03339435  0.34409143    -0.70130
V496        V  0.87242436  0.00078531  0.39592695     1.35240
V497        V  0.87259455  0.00066026  0.34552349     1.35170
C498        C  0.82943606  0.04393267  0.36988843     0.79300
C499        C  0.91528470  0.95717253  0.37064308     0.79360
C500        C  0.91590317  0.04398720  0.37102696     0.79230
C501        C  0.82816946  0.95852820  0.37087548     0.79190
O502        O  0.95160775  0.85669875  0.39463739    -0.69940
O503        O  0.01688896  0.92104124  0.39315699    -0.70160
O504        O  0.95211236  0.92134187  0.39565933    -0.70020
O505        O  0.01601807  0.85647317  0.39260089    -0.70020
O506        O  0.01536705  0.85804314  0.34018309    -0.69980
O507        O  0.94968501  0.92107110  0.34320885    -0.70000
O508        O  0.01425884  0.92232988  0.34075678    -0.69940
O509        O  0.95098220  0.85661054  0.34229776    -0.70130
V510        V  0.98413269  0.88893951  0.39302211     1.35240
V511        V  0.98255910  0.88953161  0.34265504     1.35170
C512        C  0.94058122  0.84514153  0.36859691     0.79300
C513        C  0.02657910  0.93270621  0.36661235     0.79360
C514        C  0.93997526  0.93215571  0.36990631     0.79230
C515        C  0.02655320  0.84616480  0.36592294     0.79190
O516        O  0.01628356  0.14595514  0.39432970    -0.69940
O517        O  0.95286333  0.07973258  0.39691899    -0.70160
O518        O  0.01753206  0.08124309  0.39449909    -0.70020
O519        O  0.95189485  0.14429751  0.39791654    -0.70020
O520        O  0.95100285  0.14664708  0.34545558    -0.69980
O521        O  0.01386542  0.08007022  0.34214135    -0.70000
O522        O  0.94939971  0.08183600  0.34458849    -0.69940
O523        O  0.01553185  0.14432282  0.34188707    -0.70130
V524        V  0.98463087  0.11282032  0.39491834     1.35240
V525        V  0.98244177  0.11322143  0.34454664     1.35170
C526        C  0.02677433  0.15625623  0.36748262     0.79300
C527        C  0.94036096  0.06954971  0.37095104     0.79360
C528        C  0.02653322  0.06955527  0.36787387     0.79230
C529        C  0.94069396  0.15658831  0.37245385     0.79190
C530        C  0.83283635  0.24818873  0.36975652    -0.00650
O531        O  0.12588883  0.97043730  0.33539133    -0.69940
O532        O  0.06082372  0.03372597  0.33996420    -0.70160
O533        O  0.12538646  0.03440789  0.33717187    -0.70020
O534        O  0.06118190  0.96931658  0.33906164    -0.70020
O535        O  0.06387134  0.96836220  0.39146982    -0.69980
O536        O  0.12825781  0.03278134  0.38955155    -0.70000
O537        O  0.06341962  0.03301220  0.39239680    -0.69940
O538        O  0.12898542  0.96919218  0.38781924    -0.70130
V539        V  0.09334178  0.00192964  0.33894351     1.35240
V540        V  0.09596251  0.00084159  0.38931287     1.35170
C541        C  0.13888770  0.95950859  0.36061873     0.79300
C542        C  0.05122068  0.04439393  0.36678800     0.79360
C543        C  0.13813542  0.04419772  0.36312154     0.79230
C544        C  0.05155847  0.95778986  0.36568014     0.79190
C545        C  0.22915338  0.85264889  0.36584482    -0.00650
C546        C  0.13092395  0.25294026  0.36735540    -0.00650
C547        C  0.23060717  0.14992285  0.36828221    -0.00650
O548        O  0.33353447  0.83245199  0.54449935    -0.69940
O549        O  0.40016215  0.83117490  0.48044787    -0.70160
O550        O  0.39890948  0.83235878  0.54544736    -0.70020
O551        O  0.33509208  0.83054138  0.48068015    -0.70020
O552        O  0.33230335  0.88242258  0.48082863    -0.69980
O553        O  0.40046221  0.88430841  0.54257621    -0.70000
O554        O  0.39777086  0.88305847  0.47765000    -0.69940
O555        O  0.33548847  0.88439250  0.54480547    -0.70130
V556        V  0.36704048  0.83263721  0.51275765     1.35240
V557        V  0.36664943  0.88256245  0.51144515     1.35170
C558        C  0.32262491  0.85887547  0.55489643     0.79300
C559        C  0.41013554  0.85708832  0.46796188     0.79360
C560        C  0.41095459  0.85849085  0.55475494     0.79230
C561        C  0.32150404  0.85580456  0.47100834     0.79190
O562        O  0.15186369  0.35725861  0.54881684    -0.69940
O563        O  0.15406910  0.42171775  0.48346142    -0.70160
O564        O  0.15412441  0.42204954  0.54822328    -0.70020
O565        O  0.15181911  0.35730063  0.48416026    -0.70020
O566        O  0.09962084  0.36011680  0.48286891    -0.69980
O567        O  0.10182997  0.42292390  0.54936409    -0.70000
O568        O  0.10183494  0.42427390  0.48457372    -0.69940
O569        O  0.09969783  0.35833879  0.54791432    -0.70130
V570        V  0.15195286  0.38962564  0.51620928     1.35240
V571        V  0.10175624  0.39136038  0.51624051     1.35170
C572        C  0.12535349  0.34626923  0.55908734     0.79300
C573        C  0.12825399  0.43406377  0.47307792     0.79360
C574        C  0.12839595  0.43369020  0.55950925     0.79230
C575        C  0.12542301  0.34783458  0.47242480     0.79190
O576        O  0.33632081  0.13005611  0.55049699    -0.69940
O577        O  0.39935612  0.12577276  0.48386614    -0.70160
O578        O  0.40131195  0.12673597  0.54891425    -0.70020
O579        O  0.33453956  0.12871536  0.48602463    -0.70020
O580        O  0.33752273  0.18068490  0.48438721    -0.69980
O581        O  0.40304183  0.17875481  0.54823986    -0.70000
O582        O  0.40187685  0.17776610  0.48352859    -0.69940
O583        O  0.33849367  0.18203710  0.54941029    -0.70130
V584        V  0.36796004  0.12880279  0.51736325     1.35240
V585        V  0.37019131  0.17876481  0.51644868     1.35170
C586        C  0.32627025  0.15677919  0.56085785     0.79300
C587        C  0.41124438  0.15121683  0.47232503     0.79360
C588        C  0.41354310  0.15249109  0.55921878     0.79230
C589        C  0.32490125  0.15500515  0.47439886     0.79190
O590        O  0.85904339  0.36059524  0.54748093    -0.69940
O591        O  0.85957920  0.42354865  0.48118532    -0.70160
O592        O  0.85880931  0.42475645  0.54567517    -0.70020
O593        O  0.85997272  0.35871579  0.48275833    -0.70020
O594        O  0.80775503  0.36045755  0.48053127    -0.69980
O595        O  0.80648870  0.42324441  0.54643227    -0.70000
O596        O  0.80726275  0.42469810  0.48201936    -0.69940
O597        O  0.80687585  0.35906352  0.54512811    -0.70130
V598        V  0.85837871  0.39189254  0.51419051     1.35240
V599        V  0.80812815  0.39181655  0.51352562     1.35170
C600        C  0.83277903  0.34890289  0.55741512     0.79300
C601        C  0.83346427  0.43546905  0.47107228     0.79360
C602        C  0.83245233  0.43503037  0.55681480     0.79230
C603        C  0.83395965  0.34843055  0.47084082     0.79190
C604        C  0.13068690  0.35618556  0.26609610    -0.00650
C605        C  0.23043479  0.35490287  0.15840906    -0.00650
O606        O  0.33931694  0.46975751  0.13996896    -0.69940
O607        O  0.40247393  0.53509757  0.13930301    -0.70160
O608        O  0.40368562  0.47069961  0.13859573    -0.70020
O609        O  0.33805133  0.53371749  0.14099372    -0.70020
O610        O  0.34026298  0.53424661  0.19338037    -0.69980
O611        O  0.40377492  0.46875895  0.19106566    -0.70000
O612        O  0.40489159  0.53353311  0.19171104    -0.69940
O613        O  0.33863596  0.46981398  0.19237518    -0.70130
V614        V  0.37093478  0.50230138  0.14078441     1.35240
V615        V  0.37193500  0.50156931  0.19117193     1.35170
C616        C  0.32780410  0.45882732  0.16599423     0.79300
C617        C  0.41442274  0.54556480  0.16527039     0.79360
C618        C  0.41456480  0.45865303  0.16439001     0.79230
C619        C  0.32806122  0.54485926  0.16755505     0.79190
O620        O  0.86078997  0.47196469  0.37315185    -0.69940
O621        O  0.85802076  0.53798715  0.43637622    -0.70160
O622        O  0.85950313  0.47341677  0.43749840    -0.70020
O623        O  0.85945584  0.53636796  0.37148467    -0.70020
O624        O  0.80722004  0.53606708  0.37090765    -0.69980
O625        O  0.80723414  0.47174750  0.43571661    -0.70000
O626        O  0.80575711  0.53644071  0.43605948    -0.69940
O627        O  0.80852418  0.47199787  0.37086505    -0.70130
V628        V  0.85841126  0.50502192  0.40462286     1.35240
V629        V  0.80818515  0.50412638  0.40349433     1.35170
C630        C  0.83512968  0.46070384  0.36133975     0.79300
C631        C  0.83147178  0.54836851  0.44713558     0.79360
C632        C  0.83340433  0.46127551  0.44717986     0.79230
C633        C  0.83339740  0.54668613  0.35963278     0.79190
O634        O  0.33505676  0.53181860  0.90182925    -0.69940
O635        O  0.40347987  0.47126228  0.89870117    -0.70160
O636        O  0.39985660  0.53569365  0.89943749    -0.70020
O637        O  0.33883985  0.46747807  0.90057983    -0.70020
O638        O  0.33683557  0.46917259  0.84816001    -0.69980
O639        O  0.39835029  0.53597357  0.84696538    -0.70000
O640        O  0.40152509  0.47165503  0.84625474    -0.69940
O641        O  0.33329581  0.53283795  0.84942986    -0.70130
V642        V  0.36929588  0.50162247  0.89913080     1.35240
V643        V  0.36760498  0.50242805  0.84874478     1.35170
C644        C  0.32214984  0.54232851  0.87626051     0.79300
C645        C  0.41397014  0.46091526  0.87200812     0.79360
C646        C  0.40973965  0.54713138  0.87288799     0.79230
C647        C  0.32708021  0.45716979  0.87437601     0.79190
O648        O  0.10080375  0.53366001  0.37215267    -0.69940
O649        O  0.10228654  0.47059890  0.43793373    -0.70160
O650        O  0.10138238  0.53496618  0.43710960    -0.70020
O651        O  0.10224470  0.46983405  0.37309090    -0.70020
O652        O  0.15445657  0.47204277  0.37129492    -0.69980
O653        O  0.15369055  0.53451768  0.43789384    -0.70000
O654        O  0.15457377  0.46993293  0.43657248    -0.69940
O655        O  0.15311394  0.53582606  0.37289294    -0.70130
V656        V  0.10270858  0.50227040  0.40511221     1.35240
V657        V  0.15296719  0.50304117  0.40475763     1.35170
C658        C  0.12662948  0.54531950  0.36131122     0.79300
C659        C  0.12852261  0.45920805  0.44820167     0.79360
C660        C  0.12746958  0.54576970  0.44844858     0.79230
C661        C  0.12846036  0.46045533  0.36072681     0.79190
C662        C  0.32746161  0.14898179  0.26244890    -0.00650
C663        C  0.33154898  0.25117789  0.16099736    -0.00650
O664        O  0.51488445  0.36184049  0.84134597    -0.69940
O665        O  0.44976280  0.42577358  0.84433789    -0.70160
O666        O  0.51452085  0.42628628  0.84393672    -0.70020
O667        O  0.45070030  0.36138007  0.84219005    -0.70020
O668        O  0.44956959  0.36108305  0.89459602    -0.69980
O669        O  0.51657881  0.42272892  0.89627921    -0.70000
O670        O  0.45171681  0.42540099  0.89678416    -0.69940
O671        O  0.51363644  0.35790091  0.89362982    -0.70130
V672        V  0.48249699  0.39385375  0.84397747     1.35240
V673        V  0.48293634  0.39191799  0.89433539     1.35170
C674        C  0.52447215  0.34808157  0.86679650     0.79300
C675        C  0.43963553  0.43651443  0.87101698     0.79360
C676        C  0.52658599  0.43538330  0.87042215     0.79230
C677        C  0.43940237  0.34999564  0.86813577     0.79190
O678        O  0.44360302  0.12427705  0.36937900    -0.69940
O679        O  0.50964971  0.12464388  0.43257763    -0.70160
O680        O  0.44503631  0.12439385  0.43430767    -0.70020
O681        O  0.50804677  0.12473077  0.36737195    -0.70020
O682        O  0.50602232  0.17673076  0.36573587    -0.69980
O683        O  0.44641813  0.17641754  0.43526971    -0.70000
O684        O  0.51088273  0.17664944  0.43097546    -0.69940
O685        O  0.44173888  0.17620279  0.37067437    -0.70130
V686        V  0.47659931  0.12550099  0.40087418     1.35240
V687        V  0.47630993  0.17548604  0.40067442     1.35170
C688        C  0.43120927  0.15009694  0.35940209     0.79300
C689        C  0.52146417  0.15066831  0.44265387     0.79360
C690        C  0.43523789  0.15049883  0.44630767     0.79230
C691        C  0.51733597  0.15080785  0.35487463     0.79190
O692        O  0.44775308  0.35745761  0.18574803    -0.69940
O693        O  0.51564120  0.41854802  0.18661621    -0.70160
O694        O  0.45108917  0.42162399  0.18852608    -0.70020
O695        O  0.51204132  0.35338650  0.18313870    -0.70020
O696        O  0.51221382  0.35803083  0.13085824    -0.69980
O697        O  0.44816079  0.42248482  0.13611299    -0.70000
O698        O  0.51274734  0.42263653  0.13438815    -0.69940
O699        O  0.44768708  0.35801116  0.13332896    -0.70130
V700        V  0.48172109  0.38779654  0.18499621     1.35240
V701        V  0.48025055  0.39024022  0.13468201     1.35170
C702        C  0.43639466  0.34695508  0.15951465     0.79300
C703        C  0.52504582  0.43183811  0.16081744     0.79360
C704        C  0.43896186  0.43328251  0.16306489     0.79230
C705        C  0.52236532  0.34405804  0.15591903     0.79190
O706        O  0.51282079  0.88672961  0.36901790    -0.69940
O707        O  0.44642188  0.88394181  0.43238368    -0.70160
O708        O  0.51153251  0.88472632  0.43398706    -0.70020
O709        O  0.44863620  0.88599501  0.36723617    -0.70020
O710        O  0.44834700  0.83402366  0.36615303    -0.69980
O711        O  0.51291285  0.83278437  0.43132641    -0.70000
O712        O  0.44769942  0.83195382  0.43172359    -0.69940
O713        O  0.51220818  0.83476249  0.36599306    -0.70130
V714        V  0.47979046  0.88431937  0.40071361     1.35240
V715        V  0.48026231  0.83437448  0.39900616     1.35170
C716        C  0.52311773  0.86127205  0.35611318     0.79300
C717        C  0.43574248  0.85755181  0.44297597     0.79360
C718        C  0.52348026  0.85851393  0.44353578     0.79230
C719        C  0.43847956  0.86031333  0.35466742     0.79190
C720        C  0.83225918  0.75120133  0.36512741    -0.00650
C721        C  0.36489250  0.29679250  0.18614177     0.25440
C722        C  0.36132307  0.27436408  0.16057014    -0.22670
C723        C  0.38280822  0.27777981  0.13385014     0.20340
C724        C  0.40731421  0.30079474  0.13397565     0.25380
C725        C  0.41065509  0.32227827  0.15973393    -0.22620
C726        C  0.38906500  0.32011077  0.18573078     0.20280
F727        F  0.39058190  0.34136380  0.21049775    -0.12580
F728        F  0.34454844  0.29633604  0.21180916    -0.14940
F729        F  0.42778991  0.30212513  0.10842325    -0.14940
F730        F  0.37945943  0.26088043  0.10614355    -0.12580
C731        C  0.35629441  0.22350597  0.21250537     0.25440
C732        C  0.33052593  0.22796423  0.19057535    -0.22670
C733        C  0.30435712  0.20634421  0.19309140     0.20340
C734        C  0.30366734  0.18219329  0.21620795     0.25380
C735        C  0.32844629  0.17865392  0.23933142    -0.22620
C736        C  0.35533931  0.19954797  0.23615092     0.20280
F737        F  0.38292136  0.19520584  0.25305906    -0.12580
F738        F  0.38437179  0.23975265  0.20965064    -0.14940
F739        F  0.27806124  0.16200796  0.21595867    -0.14940
F740        F  0.27892200  0.20834721  0.17264461    -0.12580
C741        C  0.37753412  0.12232610  0.29113939     0.25440
C742        C  0.35614247  0.14867739  0.28691460    -0.22670
C743        C  0.35904036  0.17445047  0.30912592     0.20340
C744        C  0.38346028  0.17510510  0.33230418     0.25380
C745        C  0.40529624  0.14961386  0.33494069    -0.22620
C746        C  0.40185935  0.12319492  0.31433758     0.20280
F747        F  0.42202175  0.09767082  0.31670976    -0.12580
F748        F  0.37408060  0.09430258  0.27501835    -0.14940
F749        F  0.38518237  0.20049190  0.35270908    -0.14940
F750        F  0.33831871  0.19959185  0.30794576    -0.12580
C751        C  0.29873774  0.29532385  0.13387096     0.25440
C752        C  0.30244019  0.27496068  0.16069618    -0.22670
C753        C  0.28028704  0.27928914  0.18647216     0.20340
C754        C  0.25546190  0.30199707  0.18467819     0.25380
C755        C  0.25358206  0.32453619  0.15892438    -0.22620
C756        C  0.27367780  0.31729229  0.13200548     0.20280
F757        F  0.26614282  0.32660671  0.10167320    -0.12580
F758        F  0.31810599  0.29218361  0.10761778    -0.14940
F759        F  0.23215242  0.29900295  0.20727539    -0.14940
F760        F  0.28261357  0.26283538  0.21460637    -0.12580
C761        C  0.30073286  0.41359354  0.13787003     0.25440
C762        C  0.30242587  0.43374912  0.16475308    -0.22670
C763        C  0.27730329  0.43237622  0.18738152     0.20340
C764        C  0.25226909  0.40980445  0.18410020     0.25380
C765        C  0.25317771  0.38562868  0.15966967    -0.22620
C766        C  0.27571853  0.39168284  0.13448800     0.20280
F767        F  0.27076400  0.38122106  0.10411561    -0.12580
F768        F  0.32254219  0.41609085  0.11352454    -0.14940
F769        F  0.22564311  0.41498607  0.20224496    -0.14940
F770        F  0.27554685  0.45450508  0.21133433    -0.12580
C771        C  0.21432774  0.35658301  0.22040049     0.25440
C772        C  0.20497950  0.35398686  0.18730042    -0.22670
C773        C  0.17149030  0.34818535  0.18241009     0.20340
C774        C  0.15037043  0.34385355  0.20786159     0.25380
C775        C  0.15805734  0.35326700  0.23971180    -0.22620
C776        C  0.19145372  0.35696856  0.24581471     0.20280
F777        F  0.20250068  0.36131591  0.27621569    -0.12580
F778        F  0.24596347  0.35891812  0.22834589    -0.14940
F779        F  0.12192348  0.32974934  0.20025198    -0.14940
F780        F  0.15710791  0.34607912  0.15325852    -0.12580
C781        C  0.10580375  0.41156649  0.33586302     0.25440
C782        C  0.12857850  0.43607463  0.33502323    -0.22670
C783        C  0.15106533  0.43695471  0.30962859     0.20340
C784        C  0.15142123  0.41292200  0.28588541     0.25380
C785        C  0.13013351  0.38647188  0.28808298    -0.22620
C786        C  0.10650472  0.38729715  0.31300348     0.20280
F787        F  0.08471879  0.36336014  0.31642516    -0.12580
F788        F  0.08358407  0.41010834  0.35991559    -0.14940
F789        F  0.17183954  0.41663950  0.26066406    -0.14940
F790        F  0.17223919  0.46160237  0.30732254    -0.12580
C791        C  0.27319884  0.17211374  0.28729990     0.25440
C792        C  0.29735414  0.14804468  0.28522452    -0.22670
C793        C  0.29492104  0.12237124  0.30747924     0.20340
C794        C  0.27263499  0.12276772  0.33251698     0.25380
C795        C  0.25003110  0.14793717  0.33588377    -0.22620
C796        C  0.24817865  0.16988219  0.30989010     0.20280
F797        F  0.22245020  0.18931242  0.30542203    -0.12580
F798        F  0.27378720  0.19910485  0.26921219    -0.14940
F799        F  0.27478953  0.09915910  0.35490977    -0.14940
F800        F  0.31540512  0.09708653  0.30603960    -0.12580
C801        C  0.28688677  0.16504355  0.39266020     0.25440
C802        C  0.25513116  0.15247979  0.39712391    -0.22670
C803        C  0.24605662  0.14594620  0.42961778     0.20340
C804        C  0.26875184  0.14631659  0.45469124     0.25380
C805        C  0.30051250  0.15560824  0.44872764    -0.22620
C806        C  0.30911270  0.16585027  0.41789128     0.20280
F807        F  0.33948341  0.17640939  0.41200095    -0.12580
F808        F  0.29687026  0.17794038  0.36431010    -0.14940
F809        F  0.25953463  0.13797567  0.48502315    -0.14940
F810        F  0.21555044  0.13784685  0.43747921    -0.12580
C811        C  0.21581847  0.21063711  0.36390359     0.25440
C812        C  0.20738219  0.17914078  0.37282892    -0.22670
C813        C  0.17737568  0.17593853  0.38898698     0.20340
C814        C  0.15569281  0.20118290  0.39053999     0.25380
C815        C  0.16017337  0.22937004  0.37193431    -0.22620
C816        C  0.19192048  0.23417656  0.35989011     0.20280
F817        F  0.20094557  0.26115718  0.34438279    -0.12580
F818        F  0.24662497  0.21816696  0.35613986    -0.14940
F819        F  0.12952277  0.19731971  0.40982899    -0.14940
F820        F  0.16804731  0.14838199  0.40358211    -0.12580
C821        C  0.15413571  0.30430089  0.34075967     0.25440
C822        C  0.13590637  0.27573186  0.33690096    -0.22670
C823        C  0.12124417  0.27203827  0.30583930     0.20340
C824        C  0.12424337  0.29561329  0.28161433     0.25380
C825        C  0.13535044  0.32653346  0.28908166    -0.22620
C826        C  0.15304795  0.32910791  0.31833816     0.20280
F827        F  0.16943473  0.35602455  0.32642798    -0.12580
F828        F  0.17220371  0.30957770  0.36760476    -0.14940
F829        F  0.11397931  0.28853483  0.25134284    -0.14940
F830        F  0.10278044  0.24674427  0.29787002    -0.12580
C831        C  0.14851638  0.27420533  0.42508748     0.25440
C832        C  0.12794155  0.27569816  0.39748465    -0.22670
C833        C  0.10580449  0.30181008  0.39621527     0.20340
C834        C  0.10417500  0.32459150  0.42094280     0.25380
C835        C  0.12513491  0.32280921  0.44733897    -0.22620
C836        C  0.14699078  0.29741729  0.44925047     0.20280
F837        F  0.16725169  0.29496300  0.47489265    -0.12580
F838        F  0.17130800  0.25138888  0.42922110    -0.14940
F839        F  0.08291498  0.34917545  0.41836781    -0.14940
F840        F  0.08532358  0.30502566  0.37083667    -0.12580
C841        C  0.24567306  0.87578785  0.42344318     0.25440
C842        C  0.24629754  0.85132429  0.39964442    -0.22670
C843        C  0.26655163  0.82452742  0.40631288     0.20340
C844        C  0.28996963  0.82586328  0.43012177     0.25380
C845        C  0.29378279  0.85351527  0.44878910    -0.22620
C846        C  0.27022513  0.87763099  0.44673593     0.20280
F847        F  0.27062284  0.90271910  0.46757226    -0.12580
F848        F  0.22135542  0.89731632  0.42532932    -0.14940
F849        F  0.31081307  0.80089454  0.43266972    -0.14940
F850        F  0.26742041  0.79858902  0.38677400    -0.12580
C851        C  0.16255004  0.09369834  0.34052847     0.25440
C852        C  0.16371911  0.06862074  0.36280506    -0.22670
C853        C  0.18924112  0.06731969  0.38501987     0.20340
C854        C  0.21248488  0.09161850  0.38598710     0.25380
C855        C  0.20948741  0.11906818  0.36597822    -0.22620
C856        C  0.18497664  0.11839807  0.34195229     0.20280
F857        F  0.18144664  0.14287630  0.32068989    -0.12580
F858        F  0.13852453  0.09533281  0.31835005    -0.14940
F859        F  0.23811552  0.08712171  0.40568953    -0.14940
F860        F  0.19210304  0.04202556  0.40545657    -0.12580
C861        C  0.17553937  0.87922830  0.34583914     0.25440
C862        C  0.20717578  0.88244188  0.35908109    -0.22670
C863        C  0.21802030  0.91416179  0.36428286     0.20340
C864        C  0.19584979  0.93964858  0.36548724     0.25380
C865        C  0.16332283  0.93431942  0.35805159    -0.22620
C866        C  0.15392606  0.90457719  0.34631267     0.20280
F867        F  0.12326311  0.89975601  0.33598531    -0.12580
F868        F  0.16490634  0.85174643  0.33197992    -0.14940
F869        F  0.20604621  0.96935403  0.37395193    -0.14940
F870        F  0.24951082  0.92016903  0.37052229    -0.12580
C871        C  0.80948920  0.29942362  0.39865218     0.25440
C872        C  0.83139077  0.27299445  0.39873515    -0.22670
C873        C  0.85201593  0.27114422  0.42638446     0.20340
C874        C  0.85389446  0.29623454  0.44883091     0.25380
C875        C  0.83379147  0.32296447  0.44619893    -0.22620
C876        C  0.81120772  0.32392361  0.42138883     0.20280
F877        F  0.79005735  0.34868606  0.41926327    -0.12580
F878        F  0.78363736  0.30076806  0.37913517    -0.14940
F879        F  0.87424906  0.29345610  0.47434372    -0.14940
F880        F  0.86897134  0.24440123  0.43382617    -0.12580
C881        C  0.07347102  0.23153571  0.38689271     0.25440
C882        C  0.09984611  0.23091662  0.36440112    -0.22670
C883        C  0.10057496  0.20394653  0.34315191     0.20340
C884        C  0.07642508  0.18054275  0.34339255     0.25380
C885        C  0.05127533  0.18189500  0.36584839    -0.22620
C886        C  0.04989854  0.20765593  0.38719311     0.20280
F887        F  0.02577254  0.20945573  0.40930341    -0.12580
F888        F  0.07097801  0.25279551  0.41136601    -0.14940
F889        F  0.07893092  0.15522847  0.32296338    -0.14940
F890        F  0.12634750  0.19864245  0.32360008    -0.12580
C891        C  0.85837837  0.19177372  0.38391174     0.25440
C892        C  0.86241320  0.22460584  0.37458103    -0.22670
C893        C  0.89489817  0.23532829  0.37369182     0.20340
C894        C  0.92053399  0.21335427  0.37168138     0.25380
C895        C  0.91469022  0.18041875  0.37451829    -0.22620
C896        C  0.88390222  0.17014818  0.38278167     0.20280
F897        F  0.87855098  0.13895193  0.39044044    -0.12580
F898        F  0.83056760  0.18043341  0.39676369    -0.14940
F899        F  0.95103664  0.22425599  0.36757759    -0.14940
F900        F  0.90187244  0.26711964  0.37427013    -0.12580
C901        C  0.87659645  0.78588913  0.39692798     0.25440
C902        C  0.86516126  0.77144233  0.36773706    -0.22670
C903        C  0.88342048  0.77998839  0.33942523     0.20340
C904        C  0.90797340  0.80294464  0.34009350     0.25380
C905        C  0.91611103  0.81892005  0.36864667    -0.22620
C906        C  0.90074017  0.80937131  0.39710930     0.20280
F907        F  0.90892841  0.82288478  0.42579260    -0.12580
F908        F  0.86677630  0.77704868  0.42647398    -0.14940
F909        F  0.92317128  0.81014032  0.31195333    -0.14940
F910        F  0.87611327  0.76887855  0.30951146    -0.12580
C911        C  0.25104773  0.13587354  0.60727521     0.25440
C912        C  0.25142760  0.15735967  0.63437454    -0.22670
C913        C  0.27852563  0.17848822  0.63576692     0.20340
C914        C  0.30181087  0.17946195  0.61126202     0.25380
C915        C  0.30034229  0.15823725  0.58522733    -0.22620
C916        C  0.27468977  0.13686015  0.58334746     0.20280
F917        F  0.27301275  0.11561456  0.55853924    -0.12580
F918        F  0.23063611  0.11085369  0.60449076    -0.14940
F919        F  0.32735436  0.19948018  0.61444926    -0.14940
F920        F  0.28471508  0.19605131  0.66270208    -0.12580
C921        C  0.18385231  0.07213512  0.68069498     0.25440
C922        C  0.15888578  0.07421954  0.65819057    -0.22670
C923        C  0.15787365  0.10019445  0.63688219     0.20340
C924        C  0.18095000  0.12443194  0.63882961     0.25380
C925        C  0.20670286  0.12302860  0.66158240    -0.22620
C926        C  0.20735820  0.09586978  0.68261305     0.20280
F927        F  0.22903642  0.09221620  0.70673659    -0.12580
F928        F  0.18544088  0.04688691  0.70136479    -0.14940
F929        F  0.17818458  0.14972005  0.61832631    -0.14940
F930        F  0.13365535  0.10290243  0.61503739    -0.12580
C931        C  0.18268237  0.88974635  0.63526475     0.25440
C932        C  0.20718299  0.88803248  0.65923132    -0.22670
C933        C  0.20966920  0.91419299  0.68093485     0.20340
C934        C  0.18668090  0.93897464  0.68046012     0.25380
C935        C  0.16175542  0.93918575  0.65744487    -0.22620
C936        C  0.16064187  0.91483179  0.63436886     0.20280
F937        F  0.13697932  0.91427802  0.61174377    -0.12580
F938        F  0.17897480  0.86599113  0.61323059    -0.14940
F939        F  0.18919054  0.96320748  0.70216106    -0.14940
F940        F  0.23439522  0.91673267  0.70206848    -0.12580
C941        C  0.26953528  0.88602752  0.62383173     0.25440
C942        C  0.24685016  0.86060640  0.62664644    -0.22670
C943        C  0.24522113  0.83895662  0.60025005     0.20340
C944        C  0.27008088  0.83799989  0.57715004     0.25380
C945        C  0.29535028  0.86039727  0.57801956    -0.22620
C946        C  0.29349253  0.88562441  0.60022757     0.20280
F947        F  0.31631266  0.90889216  0.60071159    -0.12580
F948        F  0.27110173  0.90945199  0.64647921    -0.14940
F949        F  0.26910746  0.81546512  0.55354573    -0.14940
F950        F  0.21980002  0.81912711  0.59592657    -0.12580
C951        C  0.86089697  0.20705720  0.68779764     0.25440
C952        C  0.85839540  0.22988200  0.66239716    -0.22670
C953        C  0.88071165  0.22663621  0.63637246     0.20340
C954        C  0.90481216  0.20330773  0.63690064     0.25380
C955        C  0.90721994  0.18146736  0.66249179    -0.22620
C956        C  0.88506401  0.18363355  0.68800486     0.20280
F957        F  0.88598232  0.16230120  0.71275279    -0.12580
F958        F  0.83954094  0.20735891  0.71264619    -0.14940
F959        F  0.92567537  0.20186783  0.61165933    -0.14940
F960        F  0.87826222  0.24362859  0.60860243    -0.12580
C961        C  0.80429492  0.28036138  0.60987025     0.25440
C962        C  0.82976103  0.27695677  0.63264991    -0.22670
C963        C  0.85567531  0.29909037  0.63026389     0.20340
C964        C  0.85698042  0.32188431  0.60561498     0.25380
C965        C  0.83213803  0.32408670  0.58284489    -0.22620
C966        C  0.80590479  0.30313429  0.58525064     0.20280
F967        F  0.78121606  0.30484944  0.56381988    -0.12580
F968        F  0.77638839  0.26372819  0.61203132    -0.14940
F969        F  0.88223550  0.34249495  0.60472760    -0.14940
F970        F  0.88033340  0.29833079  0.65175113    -0.12580
C971        C  0.15047660  0.19844422  0.68635869     0.25440
C972        C  0.15326214  0.22824619  0.66997957    -0.22670
C973        C  0.18527636  0.23759034  0.66356217     0.20340
C974        C  0.20975955  0.21450363  0.66001910     0.25380
C975        C  0.20542191  0.18246942  0.67117747    -0.22620
C976        C  0.17614728  0.17711671  0.68820951     0.20280
F977        F  0.17170881  0.15057136  0.70668905    -0.12580
F978        F  0.12393872  0.19055313  0.70365242    -0.14940
F979        F  0.23689099  0.22478460  0.64557162    -0.14940
F980        F  0.19277354  0.26894689  0.65908309    -0.12580
C981        C  0.06521954  0.18628921  0.63608477     0.25440
C982        C  0.04315518  0.18332149  0.66153247    -0.22670
C983        C  0.04578837  0.20382453  0.68821702     0.20340
C984        C  0.07047908  0.22640832  0.69001594     0.25380
C985        C  0.09336757  0.22946237  0.66458904    -0.22620
C986        C  0.09005649  0.20865549  0.63769515     0.20280
F987        F  0.11198718  0.20889433  0.61336200    -0.12580
F988        F  0.06389550  0.16633408  0.61022628    -0.14940
F989        F  0.07341316  0.24226147  0.71840739    -0.14940
F990        F  0.02485015  0.20147400  0.71331544    -0.12580
C991        C  0.14896090  0.27386037  0.61034016     0.25440
C992        C  0.12324572  0.27174001  0.63309981    -0.22670
C993        C  0.09474734  0.28766658  0.62249430     0.20340
C994        C  0.09566129  0.31246058  0.59973252     0.25380
C995        C  0.12425426  0.31980442  0.58335385    -0.22620
C996        C  0.15045994  0.29897027  0.58769196     0.20280
F997        F  0.17654798  0.30100374  0.56802323    -0.12580
F998        F  0.16958427  0.24925545  0.60531413    -0.14940
F999        F  0.06791709  0.32825413  0.59284397    -0.14940
F1000       F  0.06508762  0.27638141  0.63016865    -0.12580
C1001       C  0.25345907  0.41085060  0.84907226     0.25440
C1002       C  0.25484286  0.38281781  0.86876721    -0.22670
C1003       C  0.28105132  0.38077304  0.89100988     0.20340
C1004       C  0.30384249  0.40527561  0.89372346     0.25380
C1005       C  0.30200436  0.43224468  0.87379139    -0.22620
C1006       C  0.27659890  0.43488107  0.85178101     0.20280
F1007       F  0.27413789  0.46107223  0.83243239    -0.12580
F1008       F  0.23093890  0.41547537  0.82591800    -0.14940
F1009       F  0.32851407  0.40195514  0.91495876    -0.14940
F1010       F  0.28432138  0.35483559  0.91058690    -0.12580
C1011       C  0.19978369  0.32588449  0.11212755     0.25440
C1012       C  0.21131829  0.35502368  0.12594352    -0.22670
C1013       C  0.19918631  0.38405433  0.11277335     0.20340
C1014       C  0.17685629  0.38393723  0.08756331     0.25380
C1015       C  0.16445415  0.35501273  0.07546528    -0.22620
C1016       C  0.17699919  0.32605460  0.08731888     0.20280
F1017       F  0.16554364  0.29749751  0.07667621    -0.12580
F1018       F  0.20680504  0.29700449  0.12547190    -0.14940
F1019       F  0.16612757  0.41255690  0.07627085    -0.14940
F1020       F  0.20685048  0.41294355  0.12560424    -0.12580
C1021       C  0.15822784  0.32799318  0.91716237     0.25440
C1022       C  0.15959044  0.34941414  0.94301347    -0.22670
C1023       C  0.18598588  0.36975476  0.94582789     0.20340
C1024       C  0.21030827  0.36992685  0.92265273     0.25380
C1025       C  0.20959873  0.34883913  0.89529005    -0.22620
C1026       C  0.18220968  0.32812924  0.89339661     0.20280
F1027       F  0.17684374  0.30986991  0.86674593    -0.12580
F1028       F  0.13236194  0.30846545  0.91353426    -0.14940
F1029       F  0.23211669  0.39356108  0.92665904    -0.14940
F1030       F  0.18792837  0.39058225  0.97097995    -0.12580
C1031       C  0.86377874  0.30331791  0.29977325     0.25440
C1032       C  0.83564495  0.32064603  0.29093166    -0.22670
C1033       C  0.80638268  0.30867859  0.30360010     0.20340
C1034       C  0.80553534  0.28198530  0.32380336     0.25380
C1035       C  0.83402741  0.26824522  0.33690415    -0.22620
C1036       C  0.86230478  0.27606144  0.31946746     0.20280
F1037       F  0.88719887  0.25543331  0.31651280    -0.12580
F1038       F  0.89361423  0.31331142  0.29091939    -0.14940
F1039       F  0.77582083  0.27017467  0.33057814    -0.14940
F1040       F  0.77774080  0.32299444  0.29758647    -0.12580
C1041       C  0.85388420  0.38084973  0.32294648     0.25440
C1042       C  0.83664388  0.38170672  0.29304439    -0.22670
C1043       C  0.82372995  0.41251421  0.28481103     0.20340
C1044       C  0.82170677  0.43738975  0.30745283     0.25380
C1045       C  0.83626281  0.43437187  0.33765352    -0.22620
C1046       C  0.85344742  0.40653193  0.34461737     0.20280
F1047       F  0.86997245  0.40401374  0.37281974    -0.12580
F1048       F  0.87314538  0.35624204  0.33140466    -0.14940
F1049       F  0.80716606  0.46531252  0.29903348    -0.14940
F1050       F  0.81513028  0.41987516  0.25403016    -0.12580
C1051       C  0.07092485  0.38698514  0.20182165     0.25440
C1052       C  0.04794084  0.36256310  0.20010469    -0.22670
C1053       C  0.04691896  0.33983312  0.22519062     0.20340
C1054       C  0.07048982  0.33959401  0.24963450     0.25380
C1055       C  0.09752155  0.36036899  0.24780676    -0.22620
C1056       C  0.09499681  0.38620060  0.22535225     0.20280
F1057       F  0.11812189  0.40905965  0.22369173    -0.12580
F1058       F  0.07166434  0.41055698  0.17921364    -0.14940
F1059       F  0.06573023  0.31969462  0.27502873    -0.14940
F1060       F  0.02266340  0.31809672  0.22640462    -0.12580
C1061       C  0.90352733  0.38497494  0.21111191     0.25440
C1062       C  0.91404572  0.35748084  0.19511293    -0.22670
C1063       C  0.90132966  0.32793385  0.20463686     0.20340
C1064       C  0.87806369  0.32584554  0.22877791     0.25380
C1065       C  0.86594414  0.35351578  0.24526197    -0.22620
C1066       C  0.88088160  0.38314053  0.23607731     0.20280
F1067       F  0.87571350  0.41111587  0.25141908    -0.12580
F1068       F  0.91572829  0.41412529  0.20321173    -0.14940
F1069       F  0.87031155  0.29552630  0.23723208    -0.14940
F1070       F  0.91174828  0.30022690  0.19094576    -0.12580
C1071       C  0.27792272  0.61607595  0.19333040     0.25440
C1072       C  0.25472935  0.61848001  0.16818451    -0.22670
C1073       C  0.25772455  0.59634357  0.14212425     0.20340
C1074       C  0.28085725  0.57215515  0.14266577     0.25380
C1075       C  0.30277179  0.56967756  0.16821857    -0.22620
C1076       C  0.30109209  0.59183147  0.19357003     0.20280
F1077       F  0.32271533  0.59087041  0.21813541    -0.12580
F1078       F  0.27810020  0.63744768  0.21805105    -0.14940
F1079       F  0.28213044  0.55137078  0.11745817    -0.14940
F1080       F  0.24077743  0.59906396  0.11431427    -0.12580
C1081       C  0.16206788  0.62029979  0.11189922     0.25440
C1082       C  0.15959511  0.64520265  0.08935841    -0.22670
C1083       C  0.18055687  0.67137159  0.09178485     0.20340
C1084       C  0.20380723  0.67273254  0.11607721     0.25380
C1085       C  0.20753257  0.64717433  0.13859748    -0.22620
C1086       C  0.18519662  0.62145255  0.13635056     0.20280
F1087       F  0.18610871  0.59688465  0.15783932    -0.12580
F1088       F  0.14139649  0.59514596  0.11094175    -0.14940
F1089       F  0.22049332  0.70050912  0.11833197    -0.14940
F1090       F  0.17847656  0.69613296  0.07058362    -0.12580
C1091       C  0.21067269  0.67103774  0.92733285     0.25440
C1092       C  0.20888926  0.64922582  0.90113067    -0.22670
C1093       C  0.18475281  0.62513265  0.90259521     0.20340
C1094       C  0.16276787  0.62376275  0.92774429     0.25380
C1095       C  0.16341509  0.64662314  0.95228555    -0.22620
C1096       C  0.18756263  0.67018528  0.95209949     0.20280
F1097       F  0.18929216  0.69194294  0.97639532    -0.12580
F1098       F  0.23490288  0.69253378  0.93005516    -0.14940
F1099       F  0.13975669  0.60066395  0.92719713    -0.14940
F1100       F  0.18165087  0.60304144  0.87883593    -0.12580
C1101       C  0.27066472  0.56545426  0.85425538     0.25440
C1102       C  0.29505141  0.56553178  0.87772744    -0.22670
C1103       C  0.29320588  0.58802489  0.90277594     0.20340
C1104       C  0.27035772  0.61264439  0.90177419     0.25380
C1105       C  0.24910439  0.61625918  0.87495387    -0.22620
C1106       C  0.24696849  0.58947165  0.85382772     0.20280
F1107       F  0.22168142  0.58504921  0.83369748    -0.12580
F1108       F  0.26932311  0.54162476  0.83199282    -0.14940
F1109       F  0.27179759  0.63530579  0.92521598    -0.14940
F1110       F  0.31517256  0.58784475  0.92704826    -0.12580
C1111       C  0.80444235  0.70062992  0.29151824     0.25440
C1112       C  0.83082321  0.67917812  0.28668097    -0.22670
C1113       C  0.85886423  0.68609207  0.30527213     0.20340
C1114       C  0.85950443  0.71005851  0.32854109     0.25380
C1115       C  0.83288810  0.73045866  0.33381992    -0.22620
C1116       C  0.80589348  0.72602287  0.31338708     0.20280
F1117       F  0.77907696  0.74439526  0.31539967    -0.12580
F1118       F  0.77573507  0.69745126  0.27642388    -0.14940
F1119       F  0.88593981  0.71174699  0.34780132    -0.14940
F1120       F  0.88748258  0.67198595  0.29986562    -0.12580
C1121       C  0.90415419  0.67177060  0.21075529     0.25440
C1122       C  0.90797434  0.64392285  0.19225403    -0.22670
C1123       C  0.88638409  0.61855435  0.19628376     0.20340
C1124       C  0.86142560  0.62093065  0.21859173     0.25380
C1125       C  0.85778241  0.64845240  0.23839281    -0.22620
C1126       C  0.87917787  0.67443550  0.23283125     0.20280
F1127       F  0.87472848  0.70386246  0.24595936    -0.12580
F1128       F  0.92426314  0.69716117  0.20706411    -0.14940
F1129       F  0.84021022  0.59634310  0.22008596    -0.14940
F1130       F  0.88859404  0.59178920  0.17778847    -0.12580
C1131       C  0.80894048  0.59239017  0.28452668     0.25440
C1132       C  0.83195191  0.61760898  0.28344154    -0.22670
C1133       C  0.86062917  0.61043709  0.30074923     0.20340
C1134       C  0.86069143  0.58888294  0.32653360     0.25380
C1135       C  0.83351580  0.57012015  0.33286086    -0.22620
C1136       C  0.80832172  0.57074628  0.31037100     0.20280
F1137       F  0.78471813  0.54828173  0.31141717    -0.12580
F1138       F  0.79123413  0.58409172  0.25836951    -0.14940
F1139       F  0.88818286  0.58501190  0.34383621    -0.14940
F1140       F  0.88985569  0.61811935  0.28852240    -0.12580
C1141       C  0.20562208  0.62490788  0.22167015     0.25440
C1142       C  0.20810109  0.64907542  0.19756126    -0.22670
C1143       C  0.18504167  0.67409719  0.19871401     0.20340
C1144       C  0.15983096  0.67374861  0.22069371     0.25380
C1145       C  0.15652460  0.64882370  0.24367742    -0.22620
C1146       C  0.18184371  0.62622165  0.24555770     0.20280
F1147       F  0.18443221  0.60512804  0.27027202    -0.12580
F1148       F  0.22439191  0.59841550  0.22185638    -0.14940
F1149       F  0.13720920  0.69715687  0.21820422    -0.14940
F1150       F  0.18613061  0.69881910  0.17743239    -0.12580
C1151       C  0.07538649  0.63186894  0.18590898     0.25440
C1152       C  0.04415187  0.63747954  0.19630777    -0.22670
C1153       C  0.03807402  0.64059425  0.22951609     0.20340
C1154       C  0.06382256  0.64108490  0.25169777     0.25380
C1155       C  0.09620359  0.64175285  0.24076706    -0.22620
C1156       C  0.10080820  0.63260781  0.20762097     0.20280
F1157       F  0.12921860  0.62172148  0.19576685    -0.12580
F1158       F  0.08139662  0.62527343  0.15431798    -0.14940
F1159       F  0.05702790  0.64195047  0.28378468    -0.14940
F1160       F  0.00736117  0.64311525  0.24041384    -0.12580
C1161       C  0.12394838  0.58837677  0.28108037     0.25440
C1162       C  0.12450837  0.62109225  0.29071739    -0.22670
C1163       C  0.12285166  0.62711085  0.32475895     0.20340
C1164       C  0.12396484  0.60225890  0.34710396     0.25380
C1165       C  0.12564528  0.57062767  0.33693583    -0.22620
C1166       C  0.12495957  0.56359378  0.30393245     0.20280
F1167       F  0.12559321  0.53267633  0.29380998    -0.12580
F1168       F  0.12407675  0.58020075  0.24937536    -0.14940
F1169       F  0.12292364  0.60920836  0.37916771    -0.14940
F1170       F  0.11917947  0.65657788  0.33772517    -0.12580
C1171       C  0.27511616  0.26850108  0.86878442     0.25440
C1172       C  0.30684771  0.27709574  0.86030486    -0.22670
C1173       C  0.30909578  0.30605167  0.84232667     0.20340
C1174       C  0.28388937  0.32791073  0.84111891     0.25380
C1175       C  0.25508130  0.32330328  0.85899241    -0.22620
C1176       C  0.25102040  0.29192092  0.87206773     0.20280
F1177       F  0.22456483  0.28256846  0.88834299    -0.12580
F1178       F  0.26728458  0.23743973  0.87457191    -0.14940
F1179       F  0.28847800  0.35448121  0.82268166    -0.14940
F1180       F  0.33464195  0.31281590  0.82325472    -0.12580
C1181       C  0.38774875  0.28152927  0.83860615     0.25440
C1182       C  0.36654591  0.27623205  0.86515643    -0.22670
C1183       C  0.37059247  0.29601348  0.89271937     0.20340
C1184       C  0.39462226  0.31926821  0.89397707     0.25380
C1185       C  0.41514657  0.32418927  0.86754945    -0.22620
C1186       C  0.41176753  0.30478391  0.84014655     0.20280
F1187       F  0.43102964  0.30905719  0.81397522    -0.12580
F1188       F  0.38286480  0.26802191  0.80923978    -0.14940
F1189       F  0.39663753  0.33809036  0.92064106    -0.14940
F1190       F  0.34998128  0.29418237  0.91808651    -0.12580
C1191       C  0.35833175  0.18247430  0.10383362     0.25440
C1192       C  0.33294208  0.18021255  0.08168033    -0.22670
C1193       C  0.30641245  0.20071182  0.08522921     0.20340
C1194       C  0.30520931  0.22322519  0.11013420     0.25380
C1195       C  0.33156001  0.22727404  0.13175268    -0.22620
C1196       C  0.35753637  0.20524109  0.12858480     0.20280
F1197       F  0.38271334  0.20600277  0.14944466    -0.12580
F1198       F  0.38363239  0.16192259  0.10226567    -0.14940
F1199       F  0.27685526  0.23885118  0.11388486    -0.14940
F1200       F  0.28099504  0.19875239  0.06470364    -0.12580
C1201       C  0.31282797  0.23212247  0.92033204     0.25440
C1202       C  0.33731086  0.23292157  0.89616796    -0.22670
C1203       C  0.36505658  0.21469408  0.90452203     0.20340
C1204       C  0.36365334  0.18953671  0.92683780     0.25380
C1205       C  0.33565059  0.18401833  0.94491093    -0.22620
C1206       C  0.31084210  0.20673922  0.94260254     0.20280
F1207       F  0.28592221  0.20612465  0.96383279    -0.12580
F1208       F  0.29395019  0.25785405  0.92653344    -0.14940
F1209       F  0.39055873  0.17173384  0.93186845    -0.14940
F1210       F  0.39492079  0.22489812  0.89648538    -0.12580
C1211       C  0.30338644  0.07469494  0.21039317     0.25440
C1212       C  0.33054278  0.07111480  0.19059425    -0.22670
C1213       C  0.35643204  0.09225200  0.19439741     0.20340
C1214       C  0.35517776  0.11654435  0.21752480     0.25380
C1215       C  0.32828181  0.12006103  0.23850654    -0.22620
C1216       C  0.30188617  0.09889581  0.23354198     0.20280
F1217       F  0.27333597  0.10229699  0.24902369    -0.12580
F1218       F  0.27773016  0.05479532  0.20723389    -0.14940
F1219       F  0.38083912  0.13650435  0.21974901    -0.14940
F1220       F  0.38277763  0.09007128  0.17508916    -0.12580
C1221       C  0.39038121  0.83568441  0.28056070     0.25440
C1222       C  0.36531102  0.85874828  0.28082905    -0.22670
C1223       C  0.37000414  0.88612065  0.30095728     0.20340
C1224       C  0.39447363  0.88703829  0.32388876     0.25380
C1225       C  0.41551156  0.86110752  0.32736461    -0.22620
C1226       C  0.41438701  0.83625192  0.30444446     0.20280
F1227       F  0.43679652  0.81256980  0.30492987    -0.11620
F1228       F  0.39276745  0.81312501  0.25722430    -0.14940
F1229       F  0.39566914  0.91226478  0.34455352    -0.14940
F1230       F  0.34825224  0.91039256  0.30153317    -0.12580
C1231       C  0.31148075  0.84998892  0.32226370     0.25440
C1232       C  0.30456906  0.85292039  0.28890025    -0.22670
C1233       C  0.27128408  0.85187627  0.28091337     0.20340
C1234       C  0.24729233  0.85044184  0.30517761     0.25380
C1235       C  0.25530500  0.85279952  0.33842157    -0.22620
C1236       C  0.28845429  0.85665189  0.34521519     0.20280
F1237       F  0.29990378  0.86816627  0.37356940    -0.12580
F1238       F  0.34022509  0.83989725  0.33399272    -0.14940
F1239       F  0.21621190  0.84753521  0.29580958    -0.14940
F1240       F  0.26152427  0.85205534  0.24974202    -0.12580
C1241       C  0.35721417  0.88905277  0.21788169     0.25440
C1242       C  0.33254099  0.88661037  0.24163689    -0.22670
C1243       C  0.30955541  0.91171846  0.24300037     0.20340
C1244       C  0.30934864  0.93584043  0.21928707     0.25380
C1245       C  0.33283118  0.93642334  0.19478262    -0.22620
C1246       C  0.35731479  0.91345647  0.19508273     0.20280
F1247       F  0.38059477  0.91341979  0.17202129    -0.12580
F1248       F  0.38042866  0.86627041  0.21533243    -0.14940
F1249       F  0.28640053  0.95897003  0.22057679    -0.14940
F1250       F  0.28748756  0.91359232  0.26701200    -0.12580
C1251       C  0.60016715  0.30239147  0.13634433     0.25440
C1252       C  0.59894517  0.27440390  0.15624656    -0.22670
C1253       C  0.56773543  0.26567642  0.16714007     0.20340
C1254       C  0.54263574  0.28835425  0.16762404     0.25380
C1255       C  0.54680648  0.31850103  0.15325588    -0.22620
C1256       C  0.57470965  0.32414189  0.13542776     0.20280
F1257       F  0.57828206  0.35187434  0.11862652    -0.12580
F1258       F  0.62675795  0.31061341  0.11937296    -0.14940
F1259       F  0.51417031  0.28073222  0.18177815    -0.14940
F1260       F  0.56139552  0.23589614  0.17843718    -0.12580
C1261       C  0.64232306  0.21193843  0.08155006     0.25440
C1262       C  0.62875957  0.18197180  0.08750856    -0.22670
C1263       C  0.61540916  0.17548323  0.11769154     0.20340
C1264       C  0.61669564  0.19828631  0.14230119     0.25380
C1265       C  0.63173082  0.22866720  0.13749992    -0.22620
C1266       C  0.64266166  0.23538671  0.10559630     0.20280
F1267       F  0.65435685  0.26438058  0.09705244    -0.12580
F1268       F  0.65433223  0.21895655  0.05185104    -0.14940
F1269       F  0.60206686  0.19033355  0.17043990    -0.14940
F1270       F  0.60116806  0.14677057  0.12347839    -0.12580
C1271       C  0.62265155  0.24027669  0.93130105     0.25440
C1272       C  0.63284309  0.23172943  0.89968053    -0.22670
C1273       C  0.64873684  0.20156518  0.89700429     0.20340
C1274       C  0.64808736  0.17915686  0.92192845     0.25380
C1275       C  0.63254879  0.18603507  0.95091574    -0.22620
C1276       C  0.62079996  0.21713029  0.95600371     0.20280
F1277       F  0.60815097  0.22529867  0.98509798    -0.12580
F1278       F  0.61316751  0.27050218  0.93834936    -0.14940
F1279       F  0.66221204  0.15017322  0.91738642    -0.14940
F1280       F  0.66573331  0.19338093  0.87044442    -0.12580
C1281       C  0.56974140  0.27118387  0.88627164     0.25440
C1282       C  0.59714318  0.27378205  0.86583843    -0.22670
C1283       C  0.59561299  0.29752723  0.84118191     0.20340
C1284       C  0.57165945  0.32100509  0.84111188     0.25380
C1285       C  0.54783823  0.32127230  0.86504418    -0.22620
C1286       C  0.54618989  0.29535738  0.88663794     0.20280
F1287       F  0.52134466  0.29309058  0.90783957    -0.12580
F1288       F  0.56471945  0.24537180  0.90544634    -0.14940
F1289       F  0.57314603  0.34477920  0.81875876    -0.14940
F1290       F  0.61933023  0.30009394  0.81879821    -0.12580
C1291       C  0.61328565  0.90337593  0.18619755     0.25440
C1292       C  0.62324534  0.93392620  0.19522369    -0.22670
C1293       C  0.63454905  0.93906961  0.22659677     0.20340
C1294       C  0.63623778  0.91371536  0.24873840     0.25380
C1295       C  0.62904089  0.88176770  0.23934577    -0.22620
C1296       C  0.61584337  0.87772778  0.20766777     0.20280
F1297       F  0.60387632  0.84940386  0.19708627    -0.12580
F1298       F  0.60137206  0.89817156  0.15609480    -0.14940
F1299       F  0.64566218  0.92077647  0.27919416    -0.14940
F1300       F  0.64338901  0.96893201  0.23604869    -0.12580
C1301       C  0.60392112  0.87362297  0.31779411     0.25440
C1302       C  0.60066953  0.85883711  0.28679516    -0.22670
C1303       C  0.56869923  0.85185336  0.27699363     0.20340
C1304       C  0.54328010  0.85202347  0.29952723     0.25380
C1305       C  0.54849151  0.86248714  0.33130695    -0.22620
C1306       C  0.57842480  0.87485110  0.33957130     0.20280
F1307       F  0.58333277  0.88744780  0.36940545    -0.12580
F1308       F  0.63167817  0.88737742  0.32774574    -0.14940
F1309       F  0.51351151  0.84234759  0.29022253    -0.14940
F1310       F  0.56202699  0.84354563  0.24606540    -0.12580
C1311       C  0.65962209  0.19712968  0.23088770     0.25440
C1312       C  0.63029561  0.18895395  0.24623392    -0.22670
C1313       C  0.60718326  0.21420477  0.24620846     0.20340
C1314       C  0.60932310  0.23934138  0.22336381     0.25380
C1315       C  0.63267684  0.23809518  0.19843238    -0.22620
C1316       C  0.65979806  0.21882263  0.20551106     0.20280
F1317       F  0.68583090  0.21773195  0.18613725    -0.12580
F1318       F  0.68681227  0.17943354  0.23507767    -0.14940
F1319       F  0.58976302  0.26507423  0.22705037    -0.14940
F1320       F  0.58444347  0.21682813  0.26949409    -0.12580
C1321       C  0.60931864  0.09723508  0.24825630     0.25440
C1322       C  0.62432051  0.12693762  0.23930321    -0.22670
C1323       C  0.63708674  0.12753719  0.20700967     0.20340
C1324       C  0.63600430  0.10114705  0.18663476     0.25380
C1325       C  0.62091949  0.07306027  0.19585775    -0.22620
C1326       C  0.60689276  0.07131909  0.22652254     0.20280
F1327       F  0.59221414  0.04388963  0.23613742    -0.12580
F1328       F  0.59829621  0.09202046  0.27863464    -0.14940
F1329       F  0.64950331  0.10348166  0.15676598    -0.14940
F1330       F  0.65100895  0.15280547  0.19287951    -0.12580
C1331       C  0.56583560  0.15653844  0.27676994     0.25440
C1332       C  0.59792190  0.15434697  0.28858105    -0.22670
C1333       C  0.60106286  0.14721424  0.32241073     0.20340
C1334       C  0.57467516  0.14656439  0.34295005     0.25380
C1335       C  0.54379067  0.15119169  0.33123839    -0.22620
C1336       C  0.53919523  0.15573918  0.29795879     0.20280
F1337       F  0.50898397  0.15897311  0.28594942    -0.12580
F1338       F  0.56030379  0.15976915  0.24460994    -0.14940
F1339       F  0.57940183  0.14076550  0.37491873    -0.14940
F1340       F  0.62889021  0.13805000  0.33653213    -0.12580
C1341       C  0.82050099  0.73725525  0.42645491     0.25440
C1342       C  0.82723148  0.72677781  0.39436517    -0.22670
C1343       C  0.82591096  0.69258748  0.39031139     0.20340
C1344       C  0.82906155  0.67187856  0.41630127     0.25380
C1345       C  0.82844008  0.68354529  0.44759328    -0.22620
C1346       C  0.82211838  0.71603272  0.45277249     0.20280
F1347       F  0.81696047  0.72710006  0.48316721    -0.12580
F1348       F  0.81058393  0.76770272  0.43247524    -0.14940
F1349       F  0.83016728  0.63977807  0.41084748    -0.14940
F1350       F  0.81713613  0.67803061  0.36246552    -0.12580
C1351       C  0.71064150  0.87112661  0.60392423     0.25440
C1352       C  0.70969395  0.84883799  0.63055177    -0.22670
C1353       C  0.68310512  0.82695235  0.62986003     0.20340
C1354       C  0.66062745  0.82665446  0.60456933     0.25380
C1355       C  0.66201603  0.84934910  0.57974352    -0.22620
C1356       C  0.68753160  0.87094127  0.57937799     0.20280
F1357       F  0.68954676  0.89327176  0.55556123    -0.12580
F1358       F  0.73094765  0.89633699  0.60220216    -0.14940
F1359       F  0.63531929  0.80616346  0.60636562    -0.14940
F1360       F  0.67474201  0.80980073  0.65646770    -0.12580
C1361       C  0.74887896  0.91186336  0.67876003     0.25440
C1362       C  0.75207348  0.88366497  0.65962221    -0.22670
C1363       C  0.77910313  0.88210872  0.63836679     0.20340
C1364       C  0.80204490  0.90644639  0.63736159     0.25380
C1365       C  0.79937946  0.93289968  0.65785692    -0.22620
C1366       C  0.77255203  0.93564263  0.67814358     0.20280
F1367       F  0.76900508  0.96180456  0.69731123    -0.12580
F1368       F  0.72343580  0.91709859  0.69855440    -0.14940
F1369       F  0.82771209  0.90341387  0.61726062    -0.14940
F1370       F  0.78328268  0.85651227  0.61852036    -0.12580
C1371       C  0.27286129  0.85376325  0.74434958     0.25440
C1372       C  0.30586874  0.85221896  0.73513408    -0.22670
C1373       C  0.31118513  0.84744444  0.70141612     0.20340
C1374       C  0.28617847  0.84401218  0.67984740     0.25380
C1375       C  0.25447460  0.85359759  0.68744643    -0.22620
C1376       C  0.24792441  0.85590110  0.72108915     0.20280
F1377       F  0.21762822  0.86048164  0.73206008    -0.12580
F1378       F  0.26465422  0.85441007  0.77611518    -0.14940
F1379       F  0.29410420  0.83022677  0.65122457    -0.14940
F1380       F  0.34032209  0.84501141  0.68720269    -0.12580
C1381       C  0.38172417  0.82662765  0.73009946     0.25440
C1382       C  0.36649890  0.85498459  0.74166962    -0.22670
C1383       C  0.37784823  0.88476713  0.72940521     0.20340
C1384       C  0.40262602  0.88600046  0.70671404     0.25380
C1385       C  0.41590963  0.85772155  0.69424998    -0.22620
C1386       C  0.40610735  0.82815261  0.70716374     0.20280
F1387       F  0.41818807  0.80008590  0.69580823    -0.12580
F1388       F  0.37000441  0.79703376  0.73688494    -0.14940
F1389       F  0.41228804  0.91508473  0.69569356    -0.14940
F1390       F  0.36357786  0.91293807  0.73728288    -0.12580
C1391       C  0.35861104  0.88962539  0.80608091     0.25440
C1392       C  0.33273301  0.88321482  0.78442109    -0.22670
C1393       C  0.30786057  0.90688233  0.78465001     0.20340
C1394       C  0.30544074  0.92954059  0.80974245     0.25380
C1395       C  0.32908818  0.93132895  0.83384683    -0.22620
C1396       C  0.35588826  0.91135594  0.83131479     0.20280
F1397       F  0.38094494  0.91413095  0.85221797    -0.12580
F1398       F  0.38900190  0.88023098  0.79969573    -0.14940
F1399       F  0.28126530  0.95142700  0.80890771    -0.14940
F1400       F  0.28853794  0.91185329  0.75882494    -0.12580
C1401       C  0.86117389  0.58244614  0.70470833     0.25440
C1402       C  0.83188164  0.57036608  0.69364331    -0.22670
C1403       C  0.80335614  0.58254717  0.70679701     0.20340
C1404       C  0.80401782  0.60652906  0.73033916     0.25380
C1405       C  0.83356421  0.61968035  0.74193238    -0.22620
C1406       C  0.86220527  0.60634609  0.72795886     0.20280
F1407       F  0.89230849  0.61379131  0.73796465    -0.12580
F1408       F  0.88960345  0.57091570  0.69333264    -0.14940
F1409       F  0.77493035  0.61592543  0.74130742    -0.14940
F1410       F  0.77431408  0.57129937  0.69693247    -0.12580
C1411       C  0.87926168  0.61842174  0.79945314     0.25440
C1412       C  0.86466953  0.64779555  0.78917598    -0.22670
C1413       C  0.87696032  0.67619751  0.80352510     0.20340
C1414       C  0.90255075  0.67538051  0.82535845     0.25380
C1415       C  0.91619689  0.64617715  0.83508506    -0.22620
C1416       C  0.90437594  0.61782444  0.82167080     0.20280
F1417       F  0.91669158  0.58893855  0.83039285    -0.12580
F1418       F  0.86880989  0.58930311  0.78923041    -0.14940
F1419       F  0.91334367  0.70357159  0.83758949    -0.14940
F1420       F  0.86428120  0.70537483  0.79728895    -0.12580
C1421       C  0.71425402  0.29659614  0.86942926     0.25440
C1422       C  0.70572454  0.32913382  0.87429737    -0.22670
C1423       C  0.67441737  0.33424517  0.88693457     0.20340
C1424       C  0.65137203  0.31029190  0.88686966     0.25380
C1425       C  0.65754620  0.27960576  0.87339991    -0.22620
C1426       C  0.69052361  0.27238196  0.86828559     0.20280
F1427       F  0.70013918  0.24221774  0.86121961    -0.12580
F1428       F  0.74530266  0.28820236  0.86391963    -0.14940
F1429       F  0.62291581  0.31795455  0.90099462    -0.14940
F1430       F  0.66544289  0.36225429  0.90092698    -0.12580
C1431       C  0.71353009  0.41614686  0.88967302     0.25440
C1432       C  0.71061121  0.38976301  0.86816877    -0.22670
C1433       C  0.68681981  0.39241560  0.84361502     0.20340
C1434       C  0.66418386  0.41712483  0.84373763     0.25380
C1435       C  0.66449695  0.44045001  0.86806473    -0.22620
C1436       C  0.68998440  0.44036622  0.89036251     0.20280
F1437       F  0.69253442  0.46420236  0.91250192    -0.12580
F1438       F  0.73929465  0.41965307  0.90938145    -0.14940
F1439       F  0.64064354  0.41697455  0.82098812    -0.14940
F1440       F  0.68374047  0.36939751  0.82068791    -0.12580
C1441       C  0.78612478  0.34157096  0.89477655     0.25440
C1442       C  0.75432176  0.35404125  0.89909245    -0.22670
C1443       C  0.74496055  0.36037749  0.93147367     0.20340
C1444       C  0.76786500  0.36137689  0.95639697     0.25380
C1445       C  0.79996843  0.35319153  0.95024265    -0.22620
C1446       C  0.80848965  0.34188296  0.91978725     0.20280
F1447       F  0.83890611  0.33130536  0.91406256    -0.12580
F1448       F  0.79600435  0.32771779  0.86685017    -0.14940
F1449       F  0.75860083  0.36994775  0.98663599    -0.14940
F1450       F  0.71400030  0.36724610  0.93903130    -0.12580
C1451       C  0.56802979  0.68641873  0.89439290     0.25440
C1452       C  0.54621614  0.68318374  0.86882380    -0.22670
C1453       C  0.54761555  0.70483300  0.84295390     0.20340
C1454       C  0.57104019  0.72881607  0.84200969     0.25380
C1455       C  0.59400174  0.73182957  0.86735368    -0.22620
C1456       C  0.59162381  0.71007290  0.89360483     0.20280
F1457       F  0.61342783  0.71060771  0.91801952    -0.12580
F1458       F  0.56759762  0.66563806  0.91964177    -0.14940
F1459       F  0.57278690  0.74624130  0.81445268    -0.14940
F1460       F  0.52652764  0.70248637  0.81801043    -0.12580
C1461       C  0.59393747  0.78931489  0.91019337     0.25440
C1462       C  0.62282883  0.77420077  0.89950602    -0.22670
C1463       C  0.64843648  0.77692429  0.92222882     0.20340
C1464       C  0.64946055  0.80232684  0.94453958     0.25380
C1465       C  0.62283796  0.82271487  0.94860054    -0.22620
C1466       C  0.59431326  0.81439754  0.93259016     0.20280
F1467       F  0.56619353  0.82955978  0.93940871    -0.12580
F1468       F  0.56455861  0.77737224  0.90242960    -0.14940
F1469       F  0.67550094  0.80508352  0.96414017    -0.14940
F1470       F  0.66921691  0.75254246  0.92771304    -0.12580
C1471       C  0.77363040  0.76820740  0.66641654     0.25440
C1472       C  0.80579959  0.77778712  0.67084841    -0.22670
C1473       C  0.80921445  0.80837182  0.68539824     0.20340
C1474       C  0.78390226  0.83015527  0.68629764     0.25380
C1475       C  0.75402032  0.82411218  0.67040558    -0.22620
C1476       C  0.74910023  0.79119375  0.66226802     0.20280
F1477       F  0.72166946  0.77983463  0.64956884    -0.12580
F1478       F  0.76613636  0.73666682  0.66351334    -0.14940
F1479       F  0.78962627  0.85787035  0.70252815    -0.14940
F1480       F  0.83622684  0.81695132  0.70157262    -0.12580
C1481       C  0.86141046  0.70616121  0.69655031     0.25440
C1482       C  0.83723337  0.73009616  0.69500602    -0.22670
C1483       C  0.81778148  0.73219970  0.72337637     0.20340
C1484       C  0.81950377  0.70898539  0.74796297     0.25380
C1485       C  0.83738381  0.68022414  0.74407174    -0.22620
C1486       C  0.86188418  0.68285335  0.72063875     0.20280
F1487       F  0.88991792  0.66708946  0.72397570    -0.12580
F1488       F  0.88837507  0.70780607  0.67862602    -0.14940
F1489       F  0.80644454  0.71706866  0.77690216    -0.14940
F1490       F  0.79915151  0.75802715  0.72992604    -0.12580
C1491       C  0.86314009  0.71971239  0.62082258     0.25440
C1492       C  0.83468038  0.73472132  0.63276556    -0.22670
C1493       C  0.80773137  0.73134383  0.61171823     0.20340
C1494       C  0.80599147  0.70601698  0.58940442     0.25380
C1495       C  0.83274721  0.68622579  0.58379322    -0.22620
C1496       C  0.86191013  0.69479088  0.59841413     0.20280
F1497       F  0.88986592  0.67997911  0.59023983    -0.12580
F1498       F  0.89287366  0.73142491  0.62748938    -0.14940
F1499       F  0.77894961  0.70273805  0.57130440    -0.14940
F1500       F  0.78580990  0.75498715  0.60776158    -0.12580
C1501       C  0.86780026  0.79782572  0.63660387     0.25440
C1502       C  0.86547003  0.77671058  0.66343636    -0.22670
C1503       C  0.88918899  0.77952974  0.68803661     0.20340
C1504       C  0.91366994  0.80227153  0.68559939     0.25380
C1505       C  0.91517958  0.82324543  0.65914974    -0.22620
C1506       C  0.89238915  0.82042985  0.63441116     0.20280
F1507       F  0.89275159  0.84077852  0.60881029    -0.12580
F1508       F  0.84508561  0.79768064  0.61302259    -0.14940
F1509       F  0.93557254  0.80429133  0.70985943    -0.14940
F1510       F  0.88742405  0.76312576  0.71622649    -0.12580
C1511       C  0.74909423  0.79382693  0.37626899     0.25440
C1512       C  0.75501790  0.82451146  0.36268683    -0.22670
C1513       C  0.78275070  0.82681414  0.34306606     0.20340
C1514       C  0.80622507  0.80320641  0.34301723     0.25380
C1515       C  0.80395664  0.77586346  0.36310513    -0.22620
C1516       C  0.77309301  0.77019793  0.37671172     0.20280
F1517       F  0.76479953  0.74097617  0.38842148    -0.12580
F1518       F  0.72042445  0.78573082  0.38938823    -0.14940
F1519       F  0.83018047  0.80713911  0.32140971    -0.14940
F1520       F  0.78827001  0.85272761  0.32415704    -0.12580
C1521       C  0.66099149  0.82904778  0.31143144     0.25440
C1522       C  0.66149729  0.85122219  0.28570888    -0.22670
C1523       C  0.69031383  0.86899803  0.28176921     0.20340
C1524       C  0.71496231  0.86754322  0.30508648     0.25380
C1525       C  0.71016161  0.85164483  0.33506180    -0.22620
C1526       C  0.68347493  0.83044751  0.33617168     0.20280
F1527       F  0.67687059  0.81244365  0.36249403    -0.12580
F1528       F  0.63612390  0.80826187  0.31496593    -0.14940
F1529       F  0.74322999  0.88181527  0.29756471    -0.14940
F1530       F  0.69584288  0.88679976  0.25492780    -0.12580
C1531       C  0.68333735  0.87754052  0.39512318     0.25440
C1532       C  0.71039435  0.85671063  0.39617688    -0.22670
C1533       C  0.71501754  0.83940203  0.42544143     0.20340
C1534       C  0.69053797  0.83783984  0.44871465     0.25380
C1535       C  0.66236741  0.85584932  0.44500478    -0.22620
C1536       C  0.65975508  0.87687510  0.41893878     0.20280
F1537       F  0.63361489  0.89619219  0.41584966    -0.12580
F1538       F  0.67851806  0.89781085  0.37012641    -0.14940
F1539       F  0.69491701  0.81964499  0.47555502    -0.14940
F1540       F  0.74300201  0.82432677  0.43249166    -0.12580
C1541       C  0.74993085  0.91484962  0.35325597     0.25440
C1542       C  0.75467507  0.88502050  0.36925817    -0.22670
C1543       C  0.78177405  0.88334955  0.39036609     0.20340
C1544       C  0.80507977  0.90737334  0.39109324     0.25380
C1545       C  0.80224792  0.93432252  0.37134673    -0.22620
C1546       C  0.77411039  0.93836280  0.35314460     0.20280
F1547       F  0.76953440  0.96567749  0.33593030    -0.12580
F1548       F  0.72208881  0.92226710  0.33803168    -0.14940
F1549       F  0.83140697  0.90342224  0.41013182    -0.14940
F1550       F  0.78722221  0.85740126  0.40922307    -0.12580
C1551       C  0.59945048  0.82691614  0.81157532     0.25440
C1552       C  0.62318327  0.82777609  0.78726233    -0.22670
C1553       C  0.64346500  0.80082106  0.78512684     0.20340
C1554       C  0.64463300  0.77801424  0.81000857     0.25380
C1555       C  0.62286572  0.77898540  0.83693699    -0.22620
C1556       C  0.59860673  0.80286528  0.83471448     0.20280
F1557       F  0.57119885  0.80156868  0.85191958    -0.12580
F1558       F  0.57507904  0.84854904  0.81186744    -0.14940
F1559       F  0.66629521  0.75422912  0.80542456    -0.14940
F1560       F  0.66072596  0.79463216  0.75803552    -0.12580
C1561       C  0.64979121  0.86189073  0.70587800     0.25440
C1562       C  0.65440387  0.85742225  0.73977479    -0.22670
C1563       C  0.68743757  0.85234589  0.74824803     0.20340
C1564       C  0.71179136  0.84994557  0.72448969     0.25380
C1565       C  0.70571160  0.85788942  0.69171962    -0.22620
C1566       C  0.67484335  0.87041094  0.68577990     0.20280
F1567       F  0.66720025  0.88596490  0.65800848    -0.12580
F1568       F  0.62329584  0.85187174  0.68972632    -0.14940
F1569       F  0.74104239  0.83999593  0.73459426    -0.14940
F1570       F  0.69659125  0.84370188  0.77815519    -0.12580
C1571       C  0.56311050  0.88731175  0.70085896     0.25440
C1572       C  0.54559532  0.85949645  0.69378789    -0.22670
C1573       C  0.55051653  0.83207232  0.71271487     0.20340
C1574       C  0.57394339  0.83151548  0.73687702     0.25380
C1575       C  0.59320737  0.85901351  0.74354373    -0.22620
C1576       C  0.58670900  0.88705700  0.72478509     0.20280
F1577       F  0.60599132  0.91325345  0.72701773    -0.12580
F1578       F  0.55939368  0.91428140  0.68288493    -0.14940
F1579       F  0.57896717  0.80276336  0.75124402    -0.14940
F1580       F  0.53324686  0.80501102  0.70722735    -0.12580
C1581       C  0.65081232  0.88933829  0.81277593     0.25440
C1582       C  0.62608691  0.88708322  0.78897798    -0.22670
C1583       C  0.60009076  0.90939143  0.79335531     0.20340
C1584       C  0.60229857  0.93514553  0.81459391     0.25380
C1585       C  0.62869201  0.93839423  0.83512249    -0.22620
C1586       C  0.65293431  0.91525182  0.83405804     0.20280
F1587       F  0.67684105  0.91541788  0.85643498    -0.12580
F1588       F  0.66855480  0.86364881  0.82125289    -0.14940
F1589       F  0.57716981  0.95592809  0.81641227    -0.14940
F1590       F  0.57010181  0.90452030  0.78149267    -0.12580
C1591       C  0.79614587  0.38231546  0.81003101     0.25440
C1592       C  0.79745702  0.35691181  0.78740372    -0.22670
C1593       C  0.77260194  0.33352316  0.78953723     0.20340
C1594       C  0.74800136  0.33598944  0.81267025     0.25380
C1595       C  0.74998149  0.35857143  0.83802061    -0.22620
C1596       C  0.77340323  0.38297185  0.83465593     0.20280
F1597       F  0.77602888  0.40664751  0.85692791    -0.12580
F1598       F  0.81790205  0.40654016  0.80903300    -0.14940
F1599       F  0.72249487  0.31607076  0.80950780    -0.14940
F1600       F  0.77208602  0.30695720  0.77084700    -0.12580
C1601       C  0.80299765  0.29975752  0.69360634     0.25440
C1602       C  0.82795510  0.27665027  0.69175470    -0.22670
C1603       C  0.85334419  0.27978624  0.71443921     0.20340
C1604       C  0.85289685  0.30346533  0.73831930     0.25380
C1605       C  0.82699340  0.32559508  0.74107717    -0.22620
C1606       C  0.80247086  0.32325934  0.71746128     0.20280
F1607       F  0.77763101  0.34442043  0.71707976    -0.12580
F1608       F  0.77853380  0.29974552  0.67187502    -0.14940
F1609       F  0.88027422  0.30625437  0.75583831    -0.14940
F1610       F  0.88100247  0.26274641  0.71201817    -0.12580
C1611       C  0.85353019  0.38638931  0.71718697     0.25440
C1612       C  0.82788093  0.38435154  0.73991951    -0.22670
C1613       C  0.80255781  0.40718013  0.73671957     0.20340
C1614       C  0.80430915  0.43173642  0.71393508     0.25380
C1615       C  0.83028672  0.43376097  0.69245503    -0.22620
C1616       C  0.85476753  0.41076386  0.69413709     0.20280
F1617       F  0.87959122  0.41121919  0.67278242    -0.12580
F1618       F  0.87802658  0.36486666  0.71760026    -0.14940
F1619       F  0.78007167  0.45356608  0.71278428    -0.14940
F1620       F  0.77471204  0.40530382  0.75364919    -0.12580
C1621       C  0.87960006  0.38092743  0.78986610     0.25440
C1622       C  0.85670114  0.35556172  0.78768254    -0.22670
C1623       C  0.85922329  0.33074268  0.81109507     0.20340
C1624       C  0.88411530  0.33025863  0.83384908     0.25380
C1625       C  0.90710706  0.35480991  0.83461271    -0.22620
C1626       C  0.90458445  0.37999046  0.81240431     0.20280
F1627       F  0.92634872  0.40425779  0.81260261    -0.12580
F1628       F  0.87724956  0.40822737  0.77234577    -0.14940
F1629       F  0.88507871  0.30613977  0.85584007    -0.14940
F1630       F  0.83753935  0.30643313  0.81164569    -0.12580
C1631       C  0.75050182  0.66860561  0.80600680     0.25440
C1632       C  0.75201854  0.65170008  0.83565194    -0.22670
C1633       C  0.77745586  0.62948192  0.83882427     0.20340
C1634       C  0.80212311  0.62752535  0.81626237     0.25380
C1635       C  0.80365429  0.64805762  0.78889839    -0.22620
C1636       C  0.77436504  0.66459361  0.78233755     0.20280
F1637       F  0.76734346  0.67552989  0.75224905    -0.12580
F1638       F  0.72574963  0.68831676  0.79847870    -0.14940
F1639       F  0.82297189  0.60344173  0.82129765    -0.14940
F1640       F  0.77820198  0.60854654  0.86397239    -0.12580
C1641       C  0.67671508  0.68145505  0.84132007     0.25440
C1642       C  0.70521586  0.68560217  0.85976092    -0.22670
C1643       C  0.70944433  0.71687046  0.87290778     0.20340
C1644       C  0.68536750  0.74035605  0.86958659     0.25380
C1645       C  0.65353159  0.73155157  0.86189769    -0.22620
C1646       C  0.65110808  0.70278141  0.84364278     0.20280
F1647       F  0.62512459  0.69621274  0.82503166    -0.12580
F1648       F  0.67302210  0.65606154  0.82115107    -0.14940
F1649       F  0.69317514  0.77149803  0.87489822    -0.14940
F1650       F  0.73613348  0.72601429  0.88888546    -0.12580
C1651       C  0.70550406  0.59942103  0.84554313     0.25440
C1652       C  0.70517021  0.62593614  0.86738223    -0.22670
C1653       C  0.67931601  0.62682960  0.89010286     0.20340
C1654       C  0.65673485  0.60204158  0.89215833     0.25380
C1655       C  0.65827715  0.57602083  0.87092421    -0.22620
C1656       C  0.68278596  0.57497134  0.84781619     0.20280
F1657       F  0.68464838  0.55007703  0.82676498    -0.12580
F1658       F  0.72584449  0.59721471  0.82009091    -0.14940
F1659       F  0.63258489  0.60414668  0.91417111    -0.14940
F1660       F  0.67624204  0.65186571  0.91084519    -0.12580
C1661       C  0.77811095  0.67934504  0.89456710     0.25440
C1662       C  0.75062410  0.65872756  0.89560064    -0.22670
C1663       C  0.74973600  0.63669334  0.92223335     0.20340
C1664       C  0.77372305  0.63624928  0.94579711     0.25380
C1665       C  0.80009761  0.65674412  0.94397773    -0.22620
C1666       C  0.80176685  0.67882474  0.91865372     0.20280
F1667       F  0.82765690  0.69846017  0.91582565    -0.12580
F1668       F  0.78396528  0.69825274  0.86847027    -0.14940
F1669       F  0.77147473  0.61468586  0.97030463    -0.14940
F1670       F  0.72813486  0.61270673  0.92504454    -0.12580
C1671       C  0.35953444  0.79482902  0.82884828     0.25440
C1672       C  0.33343233  0.77354769  0.83249014    -0.22670
C1673       C  0.31033908  0.77347163  0.80734589     0.20340
C1674       C  0.31057040  0.79757882  0.78331413     0.25380
C1675       C  0.33454792  0.82213261  0.78299375    -0.22620
C1676       C  0.36130534  0.81591132  0.80329862     0.20280
F1677       F  0.39140094  0.82574639  0.79598829    -0.12580
F1678       F  0.38433278  0.79525847  0.85020785    -0.14940
F1679       F  0.28891612  0.79430598  0.75913786    -0.14940
F1680       F  0.28800940  0.74999080  0.80491118    -0.12580
C1681       C  0.31251910  0.69364437  0.86975188     0.25440
C1682       C  0.30555646  0.72674398  0.86621176    -0.22670
C1683       C  0.27243500  0.73468941  0.86663551     0.20340
C1684       C  0.24848021  0.71065160  0.86862006     0.25380
C1685       C  0.25653331  0.67737879  0.86827702    -0.22620
C1686       C  0.28954525  0.67068793  0.86381990     0.20280
F1687       F  0.30085588  0.64205601  0.85327245    -0.12580
F1688       F  0.34091949  0.68214724  0.88094478    -0.14940
F1689       F  0.21765345  0.72057989  0.87117764    -0.14940
F1690       F  0.26302884  0.76580407  0.86585988    -0.12580
C1691       C  0.41338404  0.71107781  0.88849768     0.25440
C1692       C  0.41515389  0.68742251  0.86441319    -0.22670
C1693       C  0.39588752  0.69088294  0.83677825     0.20340
C1694       C  0.37212729  0.71445219  0.83548970     0.25380
C1695       C  0.36615437  0.73488061  0.86239281    -0.22620
C1696       C  0.39009707  0.73541696  0.88685121     0.20280
F1697       F  0.39219885  0.75957060  0.90855219    -0.12580
F1698       F  0.43451852  0.71095293  0.91349605    -0.14940
F1699       F  0.35192650  0.71413343  0.80971218    -0.14940
F1700       F  0.39800731  0.66975455  0.81193515    -0.12580
C1701       C  0.31786067  0.80869399  0.88917687     0.25440
C1702       C  0.32797946  0.77610412  0.89320927    -0.22670
C1703       C  0.33146885  0.76540140  0.92553341     0.20340
C1704       C  0.33242072  0.78745563  0.95124472     0.25380
C1705       C  0.32727047  0.82018977  0.94548155    -0.22620
C1706       C  0.31859159  0.83025600  0.91469949     0.20280
F1707       F  0.31071432  0.86139681  0.90922374    -0.12580
F1708       F  0.30551749  0.82021837  0.86114065    -0.14940
F1709       F  0.33830462  0.77688506  0.98168398    -0.14940
F1710       F  0.33583267  0.73383900  0.93207580    -0.12580
C1711       C  0.77461321  0.67694166  0.19209992     0.25440
C1712       C  0.75004711  0.65352083  0.19204867    -0.22670
C1713       C  0.74576111  0.63641437  0.22138950     0.20340
C1714       C  0.76832332  0.63946516  0.24641936     0.25380
C1715       C  0.79880362  0.65333069  0.24047370    -0.22620
C1716       C  0.79896580  0.67617691  0.21507212     0.20280
F1717       F  0.82203428  0.69890479  0.21275203    -0.12580
F1718       F  0.77697017  0.69881288  0.16792791    -0.14940
F1719       F  0.75918965  0.63106410  0.27676566    -0.14940
F1720       F  0.71941410  0.61821848  0.22728703    -0.12580
C1721       C  0.74347752  0.65182315  0.09864900     0.25440
C1722       C  0.75300292  0.64598969  0.13107069    -0.22670
C1723       C  0.78510098  0.63417825  0.13512747     0.20340
C1724       C  0.80770024  0.63582198  0.11021713     0.25380
C1725       C  0.79904307  0.64722347  0.07976877    -0.22620
C1726       C  0.76647595  0.65379716  0.07363703     0.20280
F1727       F  0.75684425  0.66172392  0.04334329    -0.12580
F1728       F  0.71221957  0.65723299  0.09112563    -0.14940
F1729       F  0.83842842  0.62623118  0.11598896    -0.14940
F1730       F  0.79517628  0.62030904  0.16300117    -0.12580
C1731       C  0.71500088  0.58973608  0.16886712     0.25440
C1732       C  0.70574721  0.62107327  0.15929606    -0.22670
C1733       C  0.67415568  0.62426301  0.14618184     0.20340
C1734       C  0.65184159  0.59953842  0.14796772     0.25380
C1735       C  0.66014049  0.57019928  0.16149877    -0.22620
C1736       C  0.69211627  0.56493009  0.17106161     0.20280
F1737       F  0.70136212  0.53558750  0.18172588    -0.12580
F1738       F  0.74587303  0.58313632  0.17708056    -0.14940
F1739       F  0.62168305  0.60431448  0.13630454    -0.14940
F1740       F  0.66440396  0.65099515  0.13055417    -0.12580
C1741       C  0.30048641  0.70267825  0.13949586     0.25440
C1742       C  0.30354725  0.72672197  0.16362793    -0.22670
C1743       C  0.27928440  0.72615525  0.18806393     0.20340
C1744       C  0.25749905  0.70083354  0.19092111     0.25380
C1745       C  0.25491196  0.67705082  0.16671445    -0.22620
C1746       C  0.27709444  0.67891007  0.14100638     0.20280
F1747       F  0.27557614  0.65786654  0.11605439    -0.12580
F1748       F  0.31713857  0.70363148  0.11163568    -0.14940
F1749       F  0.24000665  0.69996687  0.21853861    -0.14940
F1750       F  0.27445004  0.75048102  0.20910485    -0.12580
C1751       C  0.37609516  0.71742627  0.13326615     0.25440
C1752       C  0.36510151  0.73229653  0.16237131    -0.22670
C1753       C  0.38662100  0.72870134  0.18888612     0.20340
C1754       C  0.40958057  0.70396156  0.18944947     0.25380
C1755       C  0.41484195  0.68474279  0.16211194    -0.22620
C1756       C  0.39909421  0.69315129  0.13349947     0.20280
F1757       F  0.40645728  0.67858474  0.10510394    -0.12580
F1758       F  0.36740468  0.72823561  0.10358542    -0.14940
F1759       F  0.42837395  0.70053212  0.21605308    -0.14940
F1760       F  0.39023603  0.75165958  0.21156879    -0.12580
C1761       C  0.31285218  0.80650992  0.18606356     0.25440
C1762       C  0.32812848  0.77660154  0.19162931    -0.22670
C1763       C  0.33297068  0.76954067  0.22497420     0.20340
C1764       C  0.33277494  0.79419169  0.24853678     0.25380
C1765       C  0.32775139  0.82650145  0.23941964    -0.22620
C1766       C  0.31352881  0.83079225  0.20856426     0.20280
F1767       F  0.29776452  0.85798430  0.19990914    -0.12580
F1768       F  0.29425339  0.81221426  0.15980081    -0.14940
F1769       F  0.33810803  0.78650573  0.27994036    -0.14940
F1770       F  0.33632420  0.73872617  0.23498048    -0.12580
C1771       C  0.35874655  0.79402985  0.12720884     0.25440
C1772       C  0.33252923  0.77261777  0.13154294    -0.22670
C1773       C  0.30666053  0.77458887  0.10904888     0.20340
C1774       C  0.30701976  0.79739300  0.08432538     0.25380
C1775       C  0.33269757  0.81897583  0.08124930    -0.22620
C1776       C  0.35889563  0.81651984  0.10238611     0.20280
F1777       F  0.38404517  0.83718367  0.10030218    -0.12580
F1778       F  0.38364667  0.79451475  0.14845723    -0.14940
F1779       F  0.28145453  0.79901585  0.06395533    -0.14940
F1780       F  0.27895175  0.75793247  0.11288926    -0.12580
C1781       C  0.10003811  0.32341932  0.72164722     0.25440
C1782       C  0.12470372  0.32458976  0.74498521    -0.22670
C1783       C  0.14433559  0.29707873  0.74730615     0.20340
C1784       C  0.14445441  0.27383895  0.72276334     0.25380
C1785       C  0.12278574  0.27542962  0.69584154    -0.22620
C1786       C  0.09861660  0.29934506  0.69857496     0.20280
F1787       F  0.07116246  0.29848708  0.68145994    -0.12580
F1788       F  0.07732345  0.34672939  0.72011354    -0.14940
F1789       F  0.16502105  0.24912038  0.72750947    -0.14940
F1790       F  0.16271200  0.29124828  0.77370415    -0.12580
C1791       C  0.12737086  0.41704766  0.74999760     0.25440
C1792       C  0.13263572  0.38465771  0.74088335    -0.22670
C1793       C  0.14537108  0.37973513  0.70910100     0.20340
C1794       C  0.14617921  0.40439949  0.68650703     0.25380
C1795       C  0.13608231  0.43502597  0.69493899    -0.22620
C1796       C  0.12778703  0.44160963  0.72696283     0.20280
F1797       F  0.12025737  0.47196173  0.73600146    -0.12580
F1798       F  0.12010005  0.42525181  0.78072878    -0.14940
F1799       F  0.15626627  0.39811035  0.65592588    -0.14940
F1800       F  0.15793827  0.35135271  0.69930790    -0.12580
C1801       C  0.18059899  0.37689379  0.83984877     0.25440
C1802       C  0.20864946  0.35812398  0.83517890    -0.22670
C1803       C  0.21262968  0.34488311  0.80377306     0.20340
C1804       C  0.18863239  0.34842682  0.78015083     0.25380
C1805       C  0.15739587  0.35876534  0.78866016    -0.22620
C1806       C  0.15487275  0.37529449  0.81855900     0.20280
F1807       F  0.12754091  0.39030612  0.82816253    -0.12580
F1808       F  0.17718179  0.39596110  0.86621603    -0.14940
F1809       F  0.19568028  0.33955155  0.74944825    -0.14940
F1810       F  0.23936895  0.32875680  0.79478709    -0.12580
C1811       C  0.09401390  0.33135563  0.81012916     0.25440
C1812       C  0.09653319  0.35546039  0.78596585    -0.22670
C1813       C  0.07024687  0.37713046  0.78321253     0.20340
C1814       C  0.04551050  0.37734239  0.80639784     0.25380
C1815       C  0.04487216  0.35455769  0.83137985    -0.22620
C1816       C  0.06872418  0.33093311  0.83221927     0.20280
F1817       F  0.06860178  0.30813541  0.85563720    -0.12580
F1818       F  0.11721049  0.30877085  0.81363116    -0.14940
F1819       F  0.02161729  0.39940825  0.80387460    -0.14940
F1820       F  0.06716217  0.39734482  0.75780225    -0.12580
C1821       C  0.64961494  0.21140499  0.78672522     0.25440
C1822       C  0.62855277  0.18468602  0.78870157    -0.22670
C1823       C  0.60506620  0.18564881  0.81341436     0.20340
C1824       C  0.60517468  0.20898313  0.83713933     0.25380
C1825       C  0.62893444  0.23316907  0.83828607    -0.22620
C1826       C  0.64977420  0.23529576  0.81110077     0.20280
F1827       F  0.66952529  0.26076382  0.80695960    -0.12580
F1828       F  0.66934377  0.21547996  0.76098325    -0.14940
F1829       F  0.58288237  0.20607977  0.86089009    -0.14940
F1830       F  0.58277152  0.16214695  0.81638885    -0.12580
C1831       C  0.64934735  0.12589897  0.81860795     0.25440
C1832       C  0.63199367  0.12402441  0.78897419    -0.22670
C1833       C  0.62062728  0.09315838  0.78034757     0.20340
C1834       C  0.61877299  0.06859996  0.80358006     0.25380
C1835       C  0.63234202  0.07287926  0.83430781    -0.22620
C1836       C  0.64934680  0.10084267  0.84071950     0.20280
F1837       F  0.66540652  0.10433948  0.86905470    -0.12580
F1838       F  0.66693481  0.15187233  0.82665772    -0.14940
F1839       F  0.60441892  0.04043700  0.79584471    -0.14940
F1840       F  0.61030896  0.08679115  0.74996728    -0.12580
C1841       C  0.59451809  0.18326475  0.72396756     0.25440
C1842       C  0.59596826  0.15856708  0.74770063    -0.22670
C1843       C  0.56848136  0.13845900  0.75008263     0.20340
C1844       C  0.54553271  0.13778218  0.72517090     0.25380
C1845       C  0.54800503  0.15864286  0.69866288    -0.22620
C1846       C  0.57148059  0.18267863  0.69940487     0.20280
F1847       F  0.57376187  0.20426968  0.67495863    -0.12580
F1848       F  0.61817131  0.20554699  0.72177189    -0.14940
F1849       F  0.52048202  0.11702163  0.72726112    -0.14940
F1850       F  0.56290875  0.11981617  0.77628044    -0.12580
C1851       C  0.67762090  0.12515137  0.28871667     0.25440
C1852       C  0.65889089  0.15329295  0.28528278    -0.22670
C1853       C  0.66723433  0.17969252  0.30509785     0.20340
C1854       C  0.69153766  0.17770067  0.32795722     0.25380
C1855       C  0.70890927  0.14904216  0.33338307    -0.22620
C1856       C  0.70083101  0.12257890  0.31318447     0.20280
F1857       F  0.71151443  0.09250753  0.31960366    -0.12580
F1858       F  0.67186153  0.09850908  0.27102163    -0.14940
F1859       F  0.69562192  0.20379503  0.34682916    -0.14940
F1860       F  0.64951926  0.20705207  0.30485078    -0.12580
C1861       C  0.67883586  0.12509814  0.39157854     0.25440
C1862       C  0.70699462  0.14452652  0.39357661    -0.22670
C1863       C  0.71340763  0.15710916  0.42490955     0.20340
C1864       C  0.68906810  0.15928511  0.44820090     0.25380
C1865       C  0.65918754  0.14489264  0.44276072    -0.22620
C1866       C  0.65505017  0.12609328  0.41530142     0.20280
F1867       F  0.62794073  0.10834626  0.41146408    -0.12580
F1868       F  0.67474273  0.10315967  0.36801113    -0.14940
F1869       F  0.69539376  0.17367608  0.47691023    -0.14940
F1870       F  0.74375427  0.16500613  0.43414973    -0.12580
C1871       C  0.77544748  0.18320901  0.33814946     0.25440
C1872       C  0.75310575  0.17819811  0.36350355    -0.22670
C1873       C  0.75105106  0.20446753  0.38545232     0.20340
C1874       C  0.77646398  0.22618428  0.38928074     0.25380
C1875       C  0.80241341  0.22659364  0.36719794    -0.22620
C1876       C  0.80022508  0.20549642  0.34060916     0.20280
F1877       F  0.82264147  0.20615725  0.31669130    -0.12580
F1878       F  0.77107878  0.17041557  0.30865714    -0.14940
F1879       F  0.77476741  0.24638442  0.41479416    -0.14940
F1880       F  0.72332059  0.21219105  0.40087590    -0.12580
C1881       C  0.77225062  0.10660078  0.33724734     0.25440
C1882       C  0.75450297  0.11686088  0.36499285    -0.22670
C1883       C  0.76164605  0.09973082  0.39422073     0.20340
C1884       C  0.78611575  0.07681301  0.39583267     0.25380
C1885       C  0.80395784  0.06867893  0.36849006    -0.22620
C1886       C  0.79618946  0.08332554  0.33910978     0.20280
F1887       F  0.81137196  0.07476226  0.31133699    -0.12580
F1888       F  0.76495039  0.11590176  0.30686556    -0.14940
F1889       F  0.79170355  0.06197426  0.42450703    -0.14940
F1890       F  0.74496939  0.10334502  0.42196130    -0.12580
C1891       C  0.17698403  0.83073595  0.68257358     0.25440
C1892       C  0.20555237  0.82784581  0.66419367    -0.22670
C1893       C  0.21388214  0.79625421  0.65545633     0.20340
C1894       C  0.19058720  0.77165684  0.65547035     0.25380
C1895       C  0.15919556  0.77634223  0.66934514    -0.22620
C1896       C  0.15680156  0.80487440  0.68762401     0.20280
F1897       F  0.13669774  0.80799567  0.71280049    -0.12580
F1898       F  0.16860056  0.85819199  0.69798388    -0.14940
F1899       F  0.20004533  0.74354392  0.64202681    -0.14940
F1900       F  0.24419678  0.78904621  0.64568193    -0.12580
C1901       C  0.05647517  0.80964387  0.69010205     0.25440
C1902       C  0.04898252  0.82361914  0.66036565    -0.22670
C1903       C  0.06559315  0.81319420  0.63293130     0.20340
C1904       C  0.08963478  0.78975994  0.63526796     0.25380
C1905       C  0.09814686  0.77513407  0.66531942    -0.22620
C1906       C  0.08102607  0.78717782  0.69288917     0.20280
F1907       F  0.08911660  0.78022274  0.72386767    -0.12580
F1908       F  0.04092815  0.81869741  0.71751455    -0.14940
F1909       F  0.10530472  0.78308317  0.60753810    -0.14940
F1910       F  0.05959648  0.82658078  0.60363477    -0.12580
C1911       C  0.10491239  0.68143576  0.61062227     0.25440
C1912       C  0.12682258  0.68343913  0.58504654    -0.22670
C1913       C  0.14741264  0.70992585  0.58384954     0.20340
C1914       C  0.14673996  0.73338730  0.60820198     0.25380
C1915       C  0.12810539  0.72937527  0.63702124    -0.22620
C1916       C  0.10523681  0.70396198  0.63573034     0.20280
F1917       F  0.08158986  0.70125861  0.65785930    -0.12580
F1918       F  0.08300472  0.65732760  0.61157423    -0.14940
F1919       F  0.16128942  0.76153319  0.60086054    -0.14940
F1920       F  0.16667858  0.71443982  0.55773249    -0.12580
C1921       C  0.67457712  0.33343906  0.17195382     0.25440
C1922       C  0.70760101  0.32905734  0.16407526    -0.22670
C1923       C  0.71488258  0.29715940  0.15359838     0.20340
C1924       C  0.69088503  0.27334248  0.15200383     0.25380
C1925       C  0.65984293  0.27846427  0.16559474    -0.22620
C1926       C  0.65541152  0.30800106  0.18110495     0.20280
F1927       F  0.62796232  0.31472918  0.19762602    -0.12580
F1928       F  0.65768949  0.35919588  0.16139370    -0.14940
F1929       F  0.69891318  0.24559774  0.13696074    -0.14940
F1930       F  0.74289407  0.28943759  0.13897703    -0.12580
C1931       C  0.70956898  0.41148763  0.14102590     0.25440
C1932       C  0.71292747  0.39019479  0.16788591    -0.22670
C1933       C  0.69242328  0.39618693  0.19496908     0.20340
C1934       C  0.66879404  0.41980434  0.19414969     0.25380
C1935       C  0.66398073  0.43812200  0.16621920    -0.22620
C1936       C  0.68535076  0.43467335  0.14033032     0.20280
F1937       F  0.68251415  0.45346716  0.11368271    -0.12580
F1938       F  0.72790552  0.40951658  0.11403055    -0.14940
F1939       F  0.64865327  0.42248118  0.21986674    -0.14940
F1940       F  0.69210930  0.37605368  0.22081625    -0.12580
C1941       C  0.75818058  0.37626501  0.22289002     0.25440
C1942       C  0.75545716  0.35378791  0.19698679    -0.22670
C1943       C  0.77783519  0.32815505  0.19871723     0.20340
C1944       C  0.80073445  0.32573481  0.22334016     0.25380
C1945       C  0.80481402  0.34990504  0.24688068    -0.22620
C1946       C  0.77794808  0.37039911  0.24947673     0.20280
F1947       F  0.76949322  0.38435868  0.27783075    -0.12580
F1948       F  0.74603797  0.40631213  0.22184006    -0.14940
F1949       F  0.81621604  0.29751020  0.22535507    -0.14940
F1950       F  0.78151836  0.30709448  0.17450419    -0.12580
C1951       C  0.74943244  0.34492075  0.10640372     0.25440
C1952       C  0.75604217  0.35952107  0.13666656    -0.22670
C1953       C  0.78462706  0.37815006  0.13869023     0.20340
C1954       C  0.80769831  0.37730826  0.11426505     0.25380
C1955       C  0.80282877  0.35852228  0.08678431    -0.22620
C1956       C  0.77326882  0.34298709  0.08255064     0.20280
F1957       F  0.76688899  0.32722999  0.05459269    -0.12580
F1958       F  0.71960024  0.33398738  0.09894310    -0.14940
F1959       F  0.83517631  0.39456767  0.11774177    -0.14940
F1960       F  0.79012860  0.39789393  0.16411632    -0.12580
C1961       C  0.66269943  0.70843271  0.18794658     0.25440
C1962       C  0.65982275  0.73082824  0.16261915    -0.22670
C1963       C  0.68378823  0.72958148  0.13804264     0.20340
C1964       C  0.70916290  0.70720055  0.13943781     0.25380
C1965       C  0.70871172  0.68185177  0.16221120    -0.22620
C1966       C  0.68584470  0.68457827  0.18750782     0.20280
F1967       F  0.68352122  0.66220204  0.21098537    -0.12580
F1968       F  0.64085509  0.70750225  0.21230149    -0.14940
F1969       F  0.73371589  0.71097586  0.11826661    -0.14940
F1970       F  0.68189731  0.74766520  0.11096768    -0.12580
C1971       C  0.60993983  0.77098268  0.22313732     0.25440
C1972       C  0.63187914  0.77193792  0.19661245    -0.22670
C1973       C  0.65987255  0.78959474  0.20373007     0.20340
C1974       C  0.65872828  0.81586189  0.22414658     0.25380
C1975       C  0.63216880  0.82105550  0.24491859    -0.22620
C1976       C  0.61005445  0.79526135  0.24694018     0.20280
F1977       F  0.59009186  0.79174639  0.27258697    -0.12580
F1978       F  0.59165631  0.74483963  0.22933494    -0.14940
F1979       F  0.68424757  0.83592923  0.22342603    -0.14940
F1980       F  0.68949450  0.77890714  0.19503786    -0.12580
C1981       C  0.60132265  0.78086749  0.11224461     0.25440
C1982       C  0.62786803  0.77864449  0.13448756    -0.22670
C1983       C  0.65268504  0.80185996  0.12947509     0.20340
C1984       C  0.65053307  0.82565456  0.10598127     0.25380
C1985       C  0.62417971  0.82738237  0.08523973    -0.22620
C1986       C  0.59961571  0.80487996  0.08864159     0.20280
F1987       F  0.57414725  0.80517101  0.06807701    -0.12580
F1988       F  0.57679008  0.75961818  0.11128711    -0.14940
F1989       F  0.67519492  0.84684782  0.10318510    -0.14940
F1990       F  0.68155553  0.80020423  0.14401011    -0.12580
C1991       C  0.60170786  0.70219378  0.14017219     0.25440
C1992       C  0.59979623  0.72986574  0.16027152    -0.22670
C1993       C  0.56848036  0.73722067  0.17191434     0.20340
C1994       C  0.54431064  0.71367095  0.17274007     0.25380
C1995       C  0.54919350  0.68392668  0.15772908    -0.22620
C1996       C  0.57713949  0.67939290  0.13955982     0.20280
F1997       F  0.58060481  0.65290756  0.12089077    -0.12580
F1998       F  0.62615245  0.69837322  0.11885236    -0.14940
F1999       F  0.51551733  0.72054405  0.18662759    -0.14940
F2000       F  0.56062394  0.76753370  0.18079961    -0.12580
C2001       C  0.10602745  0.70110595  0.74532122     0.25440
C2002       C  0.13275109  0.68051007  0.74813555    -0.22670
C2003       C  0.15942168  0.68837451  0.72842539     0.20340
C2004       C  0.15852602  0.71311095  0.70605817     0.25380
C2005       C  0.12984063  0.72970266  0.69839605    -0.22620
C2006       C  0.10268016  0.72063605  0.71784381     0.20280
F2007       F  0.07185527  0.72762441  0.70959371    -0.12580
F2008       F  0.08223385  0.70196295  0.76762054    -0.14940
F2009       F  0.18626604  0.71800487  0.69032088    -0.14940
F2010       F  0.18665285  0.67068516  0.72869077    -0.12580
C2011       C  0.19441612  0.63843789  0.78551181     0.25440
C2012       C  0.16335772  0.65230834  0.78925385    -0.22670
C2013       C  0.15932726  0.67311856  0.81577251     0.20340
C2014       C  0.17984651  0.67131842  0.84209575     0.25380
C2015       C  0.20906283  0.65352458  0.84055343    -0.22620
C2016       C  0.21798020  0.64255683  0.80957280     0.20280
F2017       F  0.24869411  0.63333916  0.80331040    -0.12580
F2018       F  0.20285496  0.62186725  0.75864371    -0.14940
F2019       F  0.16973189  0.68648682  0.86925026    -0.14940
F2020       F  0.13256671  0.69169149  0.81850235    -0.12580
C2021       C  0.10783397  0.62483904  0.82019128     0.25440
C2022       C  0.10370915  0.63853700  0.78875235    -0.22670
C2023       C  0.07126735  0.64182996  0.77862570     0.20340
C2024       C  0.04612309  0.64249414  0.80155221     0.25380
C2025       C  0.05238805  0.63579471  0.83421352    -0.22620
C2026       C  0.08281487  0.62457856  0.84268667     0.20280
F2027       F  0.08867611  0.61420956  0.87323341    -0.12580
F2028       F  0.13613774  0.61186257  0.82990643    -0.14940
F2029       F  0.01575406  0.64969987  0.79189128    -0.14940
F2030       F  0.06385930  0.64651068  0.74708387    -0.12580
C2031       C  0.14631087  0.58911826  0.74925668     0.25440
C2032       C  0.13561541  0.62039181  0.74105353    -0.22670
C2033       C  0.12258147  0.62442969  0.70930032     0.20340
C2034       C  0.12327380  0.59991307  0.68676454     0.25380
C2035       C  0.13604389  0.57022696  0.69472376    -0.22620
C2036       C  0.14752237  0.56471118  0.72600412     0.20280
F2037       F  0.15873560  0.53531419  0.73438424    -0.12580
F2038       F  0.15571663  0.58183754  0.77970045    -0.14940
F2039       F  0.11089053  0.60516959  0.65683191    -0.14940
F2040       F  0.10718659  0.65133506  0.69959807    -0.12580
C2041       C  0.30499448  0.12818041  0.71218193     0.25440
C2042       C  0.30382002  0.14709133  0.74063218    -0.22670
C2043       C  0.27277726  0.15832610  0.74901893     0.20340
C2044       C  0.24886321  0.16209477  0.72545543     0.25380
C2045       C  0.25269867  0.14841940  0.69430225    -0.22620
C2046       C  0.27992222  0.12838344  0.69003289     0.20280
F2047       F  0.28238185  0.10857160  0.66412858    -0.12580
F2048       F  0.32942959  0.10750888  0.70627306    -0.14940
F2049       F  0.22197194  0.17803418  0.73441546    -0.14940
F2050       F  0.26518964  0.16518695  0.78018294    -0.12580
C2051       C  0.39373457  0.17900150  0.69910457     0.25440
C2052       C  0.41495225  0.15323585  0.69542060    -0.22670
C2053       C  0.41048747  0.12568449  0.71439943     0.20340
C2054       C  0.38500622  0.12363093  0.73629318     0.25380
C2055       C  0.36355314  0.14978493  0.74078858    -0.22620
C2056       C  0.36829036  0.17718288  0.72096112     0.20280
F2057       F  0.34739200  0.20210693  0.72165705    -0.12580
F2058       F  0.39652376  0.20554981  0.68034434    -0.14940
F2059       F  0.37967026  0.09453803  0.74981407    -0.14940
F2060       F  0.43027939  0.09997856  0.71111172    -0.12580
C2061       C  0.31382488  0.20663991  0.78429726     0.25440
C2062       C  0.33594203  0.18081223  0.78461654    -0.22670
C2063       C  0.36383496  0.18751425  0.80271202     0.20340
C2064       C  0.36369628  0.20940603  0.82806058     0.25380
C2065       C  0.33704516  0.22994421  0.83397673    -0.22620
C2066       C  0.31301248  0.22929859  0.80925512     0.20280
F2067       F  0.28977031  0.25184754  0.80632119    -0.12580
F2068       F  0.29626861  0.21387336  0.75768082    -0.14940
F2069       F  0.39264031  0.21435176  0.84179525    -0.14940
F2070       F  0.39327150  0.17922084  0.79126005    -0.12580
C2071       C  0.35793741  0.08844976  0.83210563     0.25440
C2072       C  0.33086817  0.06894738  0.83506855    -0.22670
C2073       C  0.30504024  0.07383522  0.81410088     0.20340
C2074       C  0.30594168  0.09802237  0.79073721     0.25380
C2075       C  0.33288172  0.11940694  0.78782614    -0.22620
C2076       C  0.35923103  0.11258429  0.80892639     0.20280
F2077       F  0.38846064  0.12593299  0.80521253    -0.12580
F2078       F  0.38395717  0.08393573  0.85146620    -0.14940
F2079       F  0.28015994  0.09859529  0.77082094    -0.14940
F2080       F  0.27890266  0.05434157  0.81536847    -0.12580
C2081       C  0.64933947  0.14048185  0.70909700     0.25440
C2082       C  0.65634108  0.15020539  0.74089106    -0.22670
C2083       C  0.68946517  0.15405236  0.74745930     0.20340
C2084       C  0.71286991  0.15253373  0.72258669     0.25380
C2085       C  0.70422726  0.14984991  0.68907321    -0.22620
C2086       C  0.67024040  0.14741200  0.68421230     0.20280
F2087       F  0.65482628  0.15590578  0.65670467    -0.12580
F2088       F  0.62095832  0.12679773  0.70059064    -0.14940
F2089       F  0.74286438  0.15987336  0.73213901    -0.14940
F2090       F  0.69979708  0.16073632  0.77769061    -0.12580
C2091       C  0.77529611  0.18328131  0.63469698     0.25440
C2092       C  0.75105273  0.18093819  0.65860972    -0.22670
C2093       C  0.74903398  0.20645859  0.68090972     0.20340
C2094       C  0.77415738  0.22856452  0.68399323     0.25380
C2095       C  0.79931397  0.23018747  0.66069949    -0.22620
C2096       C  0.79820905  0.20746873  0.63534446     0.20280
F2097       F  0.81981199  0.20841012  0.61075654    -0.12580
F2098       F  0.77657414  0.16241623  0.60967595    -0.14940
F2099       F  0.77347551  0.24705914  0.71080956    -0.14940
F2100       F  0.72244770  0.21139512  0.69922100    -0.12580
C2101       C  0.75868629  0.10043975  0.63220866     0.25440
C2102       C  0.75374109  0.12133702  0.65937809    -0.22670
C2103       C  0.77703460  0.11771395  0.68435005     0.20340
C2104       C  0.79749995  0.09110503  0.68597047     0.25380
C2105       C  0.79884165  0.06901790  0.66059685    -0.22620
C2106       C  0.77947172  0.07426500  0.63359232     0.20280
F2107       F  0.78197673  0.05510730  0.60718402    -0.12580
F2108       F  0.74771471  0.10713158  0.60211174    -0.14940
F2109       F  0.81888479  0.08925717  0.71071301    -0.14940
F2110       F  0.78603804  0.14277227  0.70275134    -0.12580
C2111       C  0.66824531  0.12067234  0.59469821     0.25440
C2112       C  0.66161121  0.14841055  0.57677983    -0.22670
C2113       C  0.67900161  0.17644912  0.58349788     0.20340
C2114       C  0.70158168  0.17738335  0.60845377     0.25380
C2115       C  0.70830215  0.14969655  0.62745996    -0.22620
C2116       C  0.69046600  0.12138848  0.61994337     0.20280
F2117       F  0.69253177  0.09502418  0.63911265    -0.12580
F2118       F  0.65158674  0.09319719  0.58945894    -0.14940
F2119       F  0.71413984  0.20656729  0.61527886    -0.14940
F2120       F  0.67335315  0.20378974  0.56662701    -0.12580
C2121       C  0.09847892  0.72373695  0.31354983     0.25440
C2122       C  0.12800861  0.73247924  0.32893007    -0.22670
C2123       C  0.15533778  0.72214271  0.31215100     0.20340
C2124       C  0.15466722  0.69348421  0.29545775     0.25380
C2125       C  0.12538180  0.68184023  0.28194633    -0.22620
C2126       C  0.09794460  0.70123069  0.28817138     0.20280
F2127       F  0.07083576  0.69973625  0.27026856    -0.12580
F2128       F  0.06982977  0.73682461  0.32217662    -0.14940
F2129       F  0.18353158  0.67901609  0.29076432    -0.14940
F2130       F  0.17552598  0.74422348  0.29924039    -0.12580
C2131       C  0.15517393  0.72213949  0.41436791     0.25440
C2132       C  0.13024761  0.72447382  0.39057371    -0.22670
C2133       C  0.10448508  0.70216178  0.39383543     0.20340
C2134       C  0.10284225  0.68062008  0.41990767     0.25380
C2135       C  0.12715645  0.67975429  0.44335557    -0.22620
C2136       C  0.15335973  0.70044901  0.43994576     0.20280
F2137       F  0.17747039  0.70035825  0.46211840    -0.12580
F2138       F  0.18193725  0.74058082  0.41428502    -0.14940
F2139       F  0.07737598  0.66036640  0.42198640    -0.14940
F2140       F  0.07920535  0.70251480  0.37328371    -0.12580
C2141       C  0.18172050  0.82277920  0.39002877     0.25440
C2142       C  0.20736319  0.82256091  0.36746833    -0.22670
C2143       C  0.21243922  0.79377598  0.35030501     0.20340
C2144       C  0.19093439  0.76824090  0.35424330     0.25380
C2145       C  0.15977485  0.77351502  0.36703083    -0.22620
C2146       C  0.15809687  0.79932039  0.38930153     0.20280
F2147       F  0.13436390  0.80140633  0.41168346    -0.12580
F2148       F  0.17806806  0.84724370  0.41133590    -0.14940
F2149       F  0.20269799  0.73810521  0.35054588    -0.14940
F2150       F  0.23955224  0.78860964  0.33279772    -0.12580
C2151       C  0.07338380  0.81969518  0.33931307     0.25440
C2152       C  0.05137159  0.82091893  0.36489783    -0.22670
C2153       C  0.05385930  0.79846589  0.38999468     0.20340
C2154       C  0.07808142  0.77522659  0.38981846     0.25380
C2155       C  0.10062018  0.77355902  0.36397048    -0.22620
C2156       C  0.09776618  0.79677480  0.33900448     0.20280
F2157       F  0.11933285  0.79768276  0.31433778    -0.12580
F2158       F  0.07222942  0.84162288  0.31509925    -0.14940
F2159       F  0.08091013  0.75714260  0.41683616    -0.14940
F2160       F  0.03304143  0.79928616  0.41529496    -0.12580
loop_ 
_geom_bond_atom_site_label_1 
_geom_bond_atom_site_label_2 
_geom_bond_distance 
_geom_bond_site_symmetry_2 
_ccdc_geom_bond_type 
C1         C2122   1.591       .  S
C1         C2132   1.580       .  S
C1         C2145   1.577       .  S
C1         C2155   1.561       .  S
C2         C2085   1.614       .  S
C2         C2092   1.559       .  S
C2         C2102   1.596       .  S
C2         C2115   1.571       .  S
C3         C2042   1.569       .  S
C3         C2055   1.561       .  S
C3         C2062   1.589       .  S
C3         C2075   1.590       .  S
C4         C2002   1.572       .  S
C4         C2012   1.563       .  S
C4         C2022   1.585       .  S
C4         C2032   1.561       .  S
C5         C1962   1.567       .  S
C5         C1972   1.595       .  S
C5         C1982   1.596       .  S
C5         C1992   1.576       .  S
C6         C1922   1.605       .  S
C6         C1932   1.576       .  S
C6         C1942   1.594       .  S
C6         C1952   1.559       .  S
C7         C1895   1.603       .  S
C7         C1905   1.592       .  S
C7         C1915   1.594       .  S
C7         C2005   1.594       .  S
C8         C1855   1.572       .  S
C8         C1862   1.581       .  S
C8         C1872   1.596       .  S
C8         C1882   1.589       .  S
C9         C1822   1.571       .  S
C9         C1832   1.569       .  S
C9         C1842   1.577       .  S
C9         C2082   1.575       .  S
C10        C1782   1.566       .  S
C10        C1792   1.570       .  S
C10        C1805   1.564       .  S
C10        C1812   1.568       .  S
C11        C1742   1.583       .  S
C11        C1752   1.595       .  S
C11        C1762   1.587       .  S
C11        C1772   1.561       .  S
C12        C1712   1.562       .  S
C12        C1722   1.581       .  S
C12        C1732   1.569       .  S
C12        C1965   1.573       .  S
C13        C1672   1.561       .  S
C13        C1682   1.575       .  S
C13        C1695   1.573       .  S
C13        C1702   1.571       .  S
C14        C1632   1.565       .  S
C14        C1642   1.581       .  S
C14        C1652   1.579       .  S
C14        C1662   1.588       .  S
C15        C1592   1.569       .  S
C15        C1605   1.568       .  S
C15        C1612   1.566       .  S
C15        C1622   1.571       .  S
C16        C1552   1.558       .  S
C16        C1562   1.609       .  S
C16        C1575   1.573       .  S
C16        C1582   1.593       .  S
C17        C1512   1.568       .  S
C17        C1525   1.577       .  S
C17        C1532   1.565       .  S
C17        C1542   1.578       .  S
C18        C1472   1.578       .  S
C18        C1482   1.587       .  S
C18        C1492   1.600       .  S
C18        C1502   1.557       .  S
C19        C1455   1.557       .  S
C19        C1462   1.604       .  S
C19        C1555   1.587       .  S
C19        C1645   1.576       .  S
C20        C1422   1.573       .  S
C20        C1432   1.572       .  S
C20        C1442   1.570       .  S
C20        C1595   1.564       .  S
C21        C1405   1.584       .  S
C21        C1412   1.577       .  S
C21        C1485   1.594       .  S
C21        C1635   1.591       .  S
C22        C1372   1.590       .  S
C22        C1382   1.555       .  S
C22        C1392   1.593       .  S
C22        C1675   1.588       .  S
C23        C1352   1.602       .  S
C23        C1362   1.568       .  S
C23        C1475   1.600       .  S
C23        C1565   1.574       .  S
O24          V32   1.899       .  S
O24          C34   1.263       .  A
O25          V32   1.901       .  S
O25          C35   1.264       .  A
O26          V32   1.900       .  S
O26          C36   1.264       .  A
O27          V32   1.894       .  S
O27          C37   1.264       .  A
O28          V33   1.911       .  S
O28          C37   1.267       .  A
O29          V33   1.915       .  S
O29          C36   1.268       .  A
O30          V33   1.892       .  S
O30          C35   1.262       .  A
O31          V33   1.891       .  S
O31          C34   1.260       .  A
V32          V33   2.088       .  T
C34        C1345   1.459       .  S
C35          C51   1.461       .  S
C36         C631   1.476       .  S
C37        C1495   1.489       .  S
O38          V46   1.895       .  S
O38          C48   1.263       .  A
O39          V46   1.896       .  S
O39          C49   1.263       .  A
O40          V46   1.891       .  S
O40          C50   1.263       .  A
O41          V46   1.893       .  S
O41          C51   1.263       .  A
O42          V47   1.900       .  S
O42          C51   1.264       .  A
O43          V47   1.899       .  S
O43          C50   1.264       .  A
O44          V47   1.890       .  S
O44          C49   1.261       .  A
O45          V47   1.886       .  S
O45          C48   1.263       .  A
V46          V47   2.088       .  T
C48        C1402   1.478       .  S
C49         C602   1.456       .  S
C50        C1615   1.475       .  S
O52          V60   1.894       .  S
O52          C62   1.263       .  A
O53          V60   1.898       .  S
O53          C63   1.264       .  A
O54          V60   1.902       .  S
O54          C64   1.265       .  A
O55          V60   1.898       .  S
O55          C65   1.264       .  A
O56          V61   1.894       .  S
O56          C65   1.264       .  A
O57          V61   1.907       .  S
O57          C64   1.265       .  A
O58          V61   1.905       .  S
O58          C63   1.265       .  A
O59          V61   1.899       .  S
O59          C62   1.263       .  A
V60          V61   2.087       .  T
C62        C1865   1.466       .  S
C63          C77   1.469       .  S
C64         C689   1.472       .  S
C65        C2112   1.482       .  S
O66          V74   1.903       .  S
O66          C76   1.267       .  A
O67          V74   1.908       .  S
O67          C77   1.266       .  A
O68          V74   1.892       .  S
O68          C78   1.262       .  A
O69          V74   1.895       .  S
O69          C79   1.263       .  A
O70          V75   1.911       .  S
O70          C79   1.268       .  A
O71          V75   1.912       .  S
O71          C78   1.267       .  A
O72          V75   1.895       .  S
O72          C77   1.263       .  A
O73          V75   1.884       .  S
O73          C76   1.261       .  A
V74          V75   2.087       .  T
C76        C2052   1.476       .  S
C78         C588   1.469       .  S
C79        C1845   1.482       .  S
O80          V88   1.897       .  S
O80          C90   1.263       .  A
O81          V88   1.903       .  S
O81          C91   1.264       .  A
O82          V88   1.902       .  S
O82          C92   1.264       .  A
O83          V88   1.890       .  S
O83          C93   1.263       .  A
O84          V89   1.897       .  S
O84          C93   1.262       .  A
O85          V89   1.898       .  S
O85          C92   1.264       .  A
O86          V89   1.903       .  S
O86          C91   1.266       .  A
O87          V89   1.893       .  S
O87          C90   1.262       .  A
V88          V89   2.088       .  T
C90        C1795   1.461       .  S
C91         C105   1.470       .  S
C92         C574   1.466       .  S
C93        C2035   1.459       .  S
O94         V102   1.893       .  S
O94         C104   1.264       .  A
O95         V102   1.897       .  S
O95         C105   1.263       .  A
O96         V102   1.904       .  S
O96         C106   1.265       .  A
O97         V102   1.910       .  S
O97         C107   1.266       .  A
O98         V103   1.909       .  S
O98         C107   1.267       .  A
O99         V103   1.901       .  S
O99         C106   1.264       .  A
O100        V103   1.908       .  S
O100        C105   1.266       .  A
O101        V103   1.914       .  S
O101        C104   1.267       .  A
V102        V103   2.087       .  T
C104       C2135   1.486       .  S
C106        C660   1.469       .  S
C107       C1912   1.489       .  S
O108        V116   1.899       .  S
O108        C118   1.266       .  A
O109        V116   1.903       .  S
O109        C119   1.266       .  A
O110        V116   1.887       .  S
O110        C120   1.259       .  A
O111        V116   1.877       .  S
O111        C121   1.260       .  A
O112        V117   1.900       .  S
O112        C121   1.266       .  A
O113        V117   1.902       .  S
O113        C120   1.266       .  A
O114        V117   1.900       .  S
O114        C119   1.262       .  A
O115        V117   1.890       .  S
O115        C118   1.262       .  A
V116        V117   2.087       .  T
C118       C1572   1.479       .  S
C119        C560   1.468       .  S
C120        C134   1.458       .  S
C121       C1385   1.476       .  S
O122        V130   1.912       .  S
O122        C132   1.270       .  A
O123        V130   1.914       .  S
O123        C133   1.268       .  A
O124        V130   1.889       .  S
O124        C134   1.260       .  A
O125        V130   1.884       .  S
O125        C135   1.260       .  A
O126        V131   1.907       .  S
O126        C135   1.266       .  A
O127        V131   1.901       .  S
O127        C134   1.266       .  A
O128        V131   1.901       .  S
O128        C133   1.264       .  A
O129        V131   1.897       .  S
O129        C132   1.262       .  A
V130        V131   2.086       .  T
C132       C1355   1.485       .  S
C133        C718   1.477       .  S
C135       C1535   1.467       .  S
O136        V144   1.893       .  S
O136        C146   1.262       .  A
O137        V144   1.905       .  S
O137        C147   1.264       .  A
O138        V144   1.909       .  S
O138        C148   1.267       .  A
O139        V144   1.902       .  S
O139        C149   1.267       .  A
O140        V145   1.880       .  S
O140        C149   1.260       .  A
O141        V145   1.895       .  S
O141        C148   1.262       .  A
O142        V145   1.916       .  S
O142        C147   1.269       .  A
O143        V145   1.912       .  S
O143        C146   1.266       .  A
V144        V145   2.087       .  T
C146       C1735   1.472       .  S
C147        C703   1.481       .  S
C148        C162   1.469       .  S
C149       C1935   1.474       .  S
O150        V158   1.906       .  S
O150        C160   1.265       .  A
O151        V158   1.908       .  S
O151        C161   1.265       .  A
O152        V158   1.903       .  S
O152        C162   1.266       .  A
O153        V158   1.902       .  S
O153        C163   1.264       .  A
O154        V159   1.897       .  S
O154        C163   1.265       .  A
O155        V159   1.902       .  S
O155        C162   1.263       .  A
O156        V159   1.903       .  S
O156        C161   1.265       .  A
O157        V159   1.904       .  S
O157        C160   1.265       .  A
V158        V159   2.087       .  T
C160       C1995   1.478       .  S
C161        C617   1.473       .  S
C163       C1755   1.486       .  S
O164        V172   1.888       .  S
O164        C174   1.262       .  A
O165        V172   1.893       .  S
O165        C175   1.262       .  A
O166        V172   1.904       .  S
O166        C176   1.266       .  A
O167        V172   1.899       .  S
O167        C177   1.265       .  A
O168        V173   1.891       .  S
O168        C177   1.262       .  A
O169        V173   1.902       .  S
O169        C176   1.263       .  A
O170        V173   1.914       .  S
O170        C175   1.267       .  A
O171        V173   1.913       .  S
O171        C174   1.268       .  A
V172        V173   2.087       .  T
C174       C1692   1.483       .  S
C175        C189   1.472       .  S
C176        C646   1.470       .  S
C177       C1452   1.474       .  S
O178        V186   1.913       .  S
O178        C188   1.268       .  A
O179        V186   1.911       .  S
O179        C189   1.266       .  A
O180        V186   1.907       .  S
O180        C190   1.266       .  A
O181        V186   1.904       .  S
O181        C191   1.264       .  A
O182        V187   1.893       .  S
O182        C191   1.264       .  A
O183        V187   1.896       .  S
O183        C190   1.263       .  A
O184        V187   1.896       .  S
O184        C189   1.264       .  A
O185        V187   1.897       .  S
O185        C188   1.264       .  A
V186        V187   2.086       .  T
C188       C1435   1.485       .  S
C190        C676   1.468       .  S
C191       C1655   1.475       .  S
C192       C1312   1.585       .  S
C192       C1322   1.601       .  S
C192       C1332   1.583       .  S
C192       C1852   1.562       .  S
C193       C1295   1.566       .  S
C193       C1302   1.575       .  S
C193       C1522   1.568       .  S
C193       C1975   1.569       .  S
O194        V202   1.899   1_565  S
O194        C204   1.264       .  A
O195        V202   1.901       .  S
O195        C205   1.265       .  A
O196        V202   1.896   1_565  S
O196        C206   1.263       .  A
O197        V202   1.895       .  S
O197        C207   1.263       .  A
O198        V203   1.904       .  S
O198        C207   1.264       .  A
O199        V203   1.908   1_565  S
O199        C206   1.266       .  A
O200        V203   1.907       .  S
O200        C205   1.265       .  A
O201        V203   1.891   1_565  S
O201        C204   1.264       .  A
V202        V203   2.088       .  T
C204       C1585   1.475       .  S
C205        C235   1.472       .  S
C206        C219   1.469       .  S
C207       C1835   1.471       .  S
O208        V216   1.889       .  S
O208        C218   1.263       .  A
O209        V216   1.896   1_556  S
O209        C219   1.263       .  A
O210        V216   1.906       .  S
O210        C220   1.265       .  A
O211        V216   1.910   1_556  S
O211        C221   1.267       .  A
O212        V217   1.902   1_556  S
O212        C221   1.266       .  A
O213        V217   1.900       .  S
O213        C220   1.264       .  A
O214        V217   1.907   1_556  S
O214        C219   1.265       .  A
O215        V217   1.905       .  S
O215        C218   1.265       .  A
V216        V217   2.086       .  T
C218       C1985   1.479       .  S
C220        C249   1.470       .  S
C221       C1465   1.493       .  S
C222       C1272   1.576       .  S
C222       C1282   1.575       .  S
C222       C1425   1.573       .  S
C222       C1825   1.572       .  S
O223        V231   1.898   1_556  S
O223        C233   1.264       .  A
O224        V231   1.900       .  S
O224        C234   1.265       .  A
O225        V231   1.898   1_556  S
O225        C235   1.263       .  A
O226        V231   1.895       .  S
O226        C236   1.262       .  A
O227        V232   1.898       .  S
O227        C236   1.263       .  A
O228        V232   1.910   1_556  S
O228        C235   1.267       .  A
O229        V232   1.908       .  S
O229        C234   1.265       .  A
O230        V232   1.910   1_556  S
O230        C233   1.266       .  A
V231        V232   2.087       .  T
C233       C1275   1.475       .  S
C234        C248   1.472       .  S
C236       C1262   1.464       .  S
O237        V245   1.904   1_565  S
O237        C247   1.265       .  A
O238        V245   1.913       .  S
O238        C248   1.267       .  A
O239        V245   1.900   1_565  S
O239        C249   1.264       .  A
O240        V245   1.908       .  S
O240        C250   1.264       .  A
O241        V246   1.898       .  S
O241        C250   1.266       .  A
O242        V246   1.907   1_565  S
O242        C249   1.266       .  A
O243        V246   1.895       .  S
O243        C248   1.263       .  A
O244        V246   1.895   1_565  S
O244        C247   1.262       .  A
V245        V246   2.087       .  T
C247       C1292   1.468       .  S
C250       C1325   1.475       .  S
C251       C1252   1.583       .  S
C251       C1265   1.562       .  S
C251       C1315   1.574       .  S
C251       C1925   1.568       .  S
O252        V260   1.895   1_556  S
O252        C262   1.262       .  A
O253        V260   1.898       .  S
O253        C263   1.263       .  A
O254        V260   1.903   1_556  S
O254        C264   1.265       .  A
O255        V260   1.898       .  S
O255        C265   1.265       .  A
O256        V261   1.890       .  S
O256        C265   1.262       .  A
O257        V261   1.897   1_556  S
O257        C264   1.264       .  A
O258        V261   1.907       .  S
O258        C263   1.266       .  A
O259        V261   1.906   1_556  S
O259        C262   1.265       .  A
V260        V261   2.088       .  T
C262       C1705   1.467       .  S
C263        C292   1.470       .  S
C264        C278   1.467       .  S
C265       C1775   1.474       .  S
O266        V274   1.891       .  S
O266        C276   1.265       .  A
O267        V274   1.897   1_545  S
O267        C277   1.263       .  A
O268        V274   1.896       .  S
O268        C278   1.263       .  A
O269        V274   1.891   1_545  S
O269        C279   1.263       .  A
O270        V275   1.898       .  S
O270        C279   1.264       .  A
O271        V275   1.905   1_565  S
O271        C278   1.265       .  A
O272        V275   1.903       .  S
O272        C277   1.265       .  A
O273        V275   1.908   1_565  S
O273        C276   1.265       .  A
V274        V275   2.088   1_565  T
C276       C1395   1.482       .  S
C277        C306   1.466       .  S
C279       C2072   1.476       .  S
C280       C1222   1.570       .  S
C280       C1232   1.578       .  S
C280       C1242   1.562       .  S
C280       C1765   1.570       .  S
O281        V289   1.900       .  S
O281        C291   1.265       .  A
O282        V289   1.905   1_565  S
O282        C292   1.265       .  A
O283        V289   1.896       .  S
O283        C293   1.264       .  A
O284        V289   1.895   1_565  S
O284        C294   1.265       .  A
O285        V290   1.903   1_565  S
O285        C294   1.264       .  A
O286        V290   1.904       .  S
O286        C293   1.264       .  A
O287        V290   1.900   1_565  S
O287        C292   1.264       .  A
O288        V290   1.890       .  S
O288        C291   1.263       .  A
V289        V290   2.088       .  T
C291       C1212   1.477       .  S
C293        C307   1.467       .  S
C294       C1245   1.477       .  S
O295        V303   1.893       .  S
O295        C305   1.263       .  A
O296        V303   1.896   1_556  S
O296        C306   1.263       .  A
O297        V303   1.907       .  S
O297        C307   1.266       .  A
O298        V303   1.911   1_556  S
O298        C308   1.267       .  A
O299        V304   1.900   1_556  S
O299        C308   1.265       .  A
O300        V304   1.895       .  S
O300        C307   1.263       .  A
O301        V304   1.903   1_556  S
O301        C306   1.265       .  A
O302        V304   1.905       .  S
O302        C305   1.266       .  A
V303        V304   2.087       .  T
C305       C1192   1.481       .  S
C308       C1205   1.491       .  S
C309       C1172   1.577       .  S
C309       C1182   1.560       .  S
C309       C1202   1.600       .  S
C309       C2065   1.586       .  S
C310       C1145   1.560       .  S
C310       C1155   1.582       .  S
C310       C1162   1.569       .  S
C310       C2125   1.576       .  S
C311       C1112   1.586       .  S
C311       C1125   1.554       .  S
C311       C1132   1.593       .  S
C311       C1715   1.573       .  S
O312        V320   1.914   1_455  S
O312        C322   1.268       .  A
O313        V320   1.917       .  S
O313        C323   1.267       .  A
O314        V320   1.898   1_455  S
O314        C324   1.263       .  A
O315        V320   1.888       .  S
O315        C325   1.261       .  A
O316        V321   1.897       .  S
O316        C325   1.266       .  A
O317        V321   1.906   1_455  S
O317        C324   1.265       .  A
O318        V321   1.898       .  S
O318        C323   1.264       .  A
O319        V321   1.901   1_455  S
O319        C322   1.263       .  A
V320        V321   2.087       .  T
C322       C2025   1.478       .  S
C323        C337   1.477       .  S
C324        C352   1.469       .  S
C325       C1415   1.479       .  S
O326        V334   1.896       .  S
O326        C336   1.262       .  A
O327        V334   1.896   1_556  S
O327        C337   1.263       .  A
O328        V334   1.905       .  S
O328        C338   1.265       .  A
O329        V334   1.903   1_556  S
O329        C339   1.267       .  A
O330        V335   1.896   1_556  S
O330        C339   1.262       .  A
O331        V335   1.897       .  S
O331        C338   1.263       .  A
O332        V335   1.919   1_556  S
O332        C337   1.268       .  A
O333        V335   1.921       .  S
O333        C336   1.269       .  A
V334        V335   2.087       .  T
C336       C1725   1.479       .  S
C338        C366   1.467       .  S
C339       C1665   1.476       .  S
C340       C1092   1.556       .  S
C340       C1105   1.583       .  S
C340       C1685   1.579       .  S
C340       C2015   1.563       .  S
O341        V349   1.894       .  S
O341        C351   1.264       .  A
O342        V349   1.900   1_556  S
O342        C352   1.265       .  A
O343        V349   1.893       .  S
O343        C353   1.263       .  A
O344        V349   1.896   1_556  S
O344        C354   1.262       .  A
O345        V350   1.895   1_556  S
O345        C354   1.265       .  A
O346        V350   1.898       .  S
O346        C353   1.263       .  A
O347        V350   1.904   1_556  S
O347        C352   1.264       .  A
O348        V350   1.901       .  S
O348        C351   1.265       .  A
V349        V350   2.088       .  T
C351       C1082   1.477       .  S
C353        C367   1.460       .  S
C354       C1095   1.471       .  S
O355        V363   1.901   1_455  S
O355        C365   1.264       .  A
O356        V363   1.902       .  S
O356        C366   1.264       .  A
O357        V363   1.903   1_455  S
O357        C367   1.265       .  A
O358        V363   1.896       .  S
O358        C368   1.264       .  A
O359        V364   1.874       .  S
O359        C368   1.259       .  A
O360        V364   1.887   1_455  S
O360        C367   1.261       .  A
O361        V364   1.900       .  S
O361        C366   1.265       .  A
O362        V364   1.902   1_455  S
O362        C365   1.264       .  A
V363        V364   2.089       .  T
C365       C1152   1.468       .  S
C368       C1122   1.466       .  S
C369       C1072   1.565       .  S
C369       C1085   1.567       .  S
C369       C1142   1.563       .  S
C369       C1745   1.563       .  S
O370        V378   1.906   1_556  S
O370        C380   1.265       .  A
O371        V378   1.905       .  S
O371        C381   1.266       .  A
O372        V378   1.898   1_556  S
O372        C382   1.263       .  A
O373        V378   1.891       .  S
O373        C383   1.262       .  A
O374        V379   1.903       .  S
O374        C383   1.265       .  A
O375        V379   1.902   1_556  S
O375        C382   1.265       .  A
O376        V379   1.901       .  S
O376        C381   1.264       .  A
O377        V379   1.893   1_556  S
O377        C380   1.262       .  A
V378        V379   2.088       .  T
C380       C1445   1.467       .  S
C381        C410   1.471       .  S
C382        C395   1.465       .  S
C383       C1955   1.468       .  S
O384        V392   1.904   1_455  S
O384        C394   1.265       .  A
O385        V392   1.902       .  S
O385        C395   1.265       .  A
O386        V392   1.905   1_455  S
O386        C396   1.265       .  A
O387        V392   1.898       .  S
O387        C397   1.265       .  A
O388        V393   1.901       .  S
O388        C397   1.264       .  A
O389        V393   1.900   1_455  S
O389        C396   1.264       .  A
O390        V393   1.898       .  S
O390        C395   1.263       .  A
O391        V393   1.900   1_455  S
O391        C394   1.265       .  A
V392        V393   2.088       .  T
C394       C1815   1.481       .  S
C396        C425   1.469       .  S
C397       C1625   1.480       .  S
O398        V406   1.908       .  S
O398        C408   1.267       .  A
O399        V406   1.913   1_455  S
O399        C409   1.267       .  A
O400        V406   1.902       .  S
O400        C410   1.264       .  A
O401        V406   1.903   1_455  S
O401        C411   1.266       .  A
O402        V407   1.910   1_455  S
O402        C411   1.267       .  A
O403        V407   1.905       .  S
O403        C410   1.266       .  A
O404        V407   1.894   1_455  S
O404        C409   1.263       .  A
O405        V407   1.882       .  S
O405        C408   1.261       .  A
V406        V407   2.086       .  T
C408       C1062   1.484       .  S
C409        C424   1.472       .  S
C411       C1052   1.488       .  S
C412       C1032   1.577       .  S
C412       C1042   1.595       .  S
C412       C1065   1.594       .  S
C412       C1945   1.593       .  S
O413        V421   1.896   1_556  S
O413        C423   1.261       .  A
O414        V421   1.897       .  S
O414        C424   1.264       .  A
O415        V421   1.901   1_556  S
O415        C425   1.265       .  A
O416        V421   1.900       .  S
O416        C426   1.266       .  A
O417        V422   1.895       .  S
O417        C426   1.264       .  A
O418        V422   1.903   1_556  S
O418        C425   1.264       .  A
O419        V422   1.910       .  S
O419        C424   1.265       .  A
O420        V422   1.898   1_556  S
O420        C423   1.266       .  A
V421        V422   2.087       .  T
C423       C1022   1.472       .  S
C426       C1015   1.486       .  S
C427       C1002   1.575       .  S
C427       C1025   1.586       .  S
C427       C1175   1.583       .  S
C427       C1802   1.572       .  S
C428        C972   1.578       .  S
C428        C985   1.557       .  S
C428        C992   1.605       .  S
C428       C1785   1.588       .  S
C429        C952   1.572       .  S
C429        C962   1.565       .  S
C429       C1602   1.567       .  S
C429       C2095   1.566       .  S
O430        V438   1.891       .  S
O430        C440   1.263       .  A
O431        V438   1.897   1_455  S
O431        C441   1.263       .  A
O432        V438   1.892       .  S
O432        C442   1.263       .  A
O433        V438   1.884   1_455  S
O433        C443   1.262       .  A
O434        V439   1.905   1_455  S
O434        C443   1.265       .  A
O435        V439   1.904       .  S
O435        C442   1.264       .  A
O436        V439   1.903   1_455  S
O436        C441   1.264       .  A
O437        V439   1.899       .  S
O437        C440   1.264       .  A
V438        V439   2.087       .  T
C440       C1505   1.475       .  S
C441        C470   1.466       .  S
C442        C456   1.463       .  S
C443       C1902   1.483       .  S
O444        V452   1.897   1_565  S
O444        C454   1.263       .  A
O445        V452   1.897       .  S
O445        C455   1.264       .  A
O446        V452   1.899   1_565  S
O446        C456   1.264       .  A
O447        V452   1.897       .  S
O447        C457   1.266       .  A
O448        V453   1.897       .  S
O448        C457   1.263       .  A
O449        V453   1.897   1_565  S
O449        C456   1.263       .  A
O450        V453   1.896       .  S
O450        C455   1.262       .  A
O451        V453   1.898   1_565  S
O451        C454   1.264       .  A
V452        V453   2.088       .  T
C454       C1365   1.470       .  S
C455        C484   1.461       .  S
C457       C2105   1.480       .  S
C458        C932   1.563       .  S
C458        C942   1.575       .  S
C458       C1375   1.581       .  S
C458       C1892   1.565       .  S
O459        V467   1.899       .  S
O459        C469   1.263       .  A
O460        V467   1.899   1_565  S
O460        C470   1.264       .  A
O461        V467   1.905       .  S
O461        C471   1.265       .  A
O462        V467   1.904   1_565  S
O462        C472   1.267       .  A
O463        V468   1.901   1_565  S
O463        C472   1.263       .  A
O464        V468   1.900       .  S
O464        C471   1.264       .  A
O465        V468   1.901   1_565  S
O465        C470   1.264       .  A
O466        V468   1.893       .  S
O466        C469   1.264       .  A
V467        V468   2.088       .  T
C469        C922   1.471       .  S
C471        C485   1.470       .  S
C472        C935   1.480       .  S
O473        V481   1.895   1_455  S
O473        C483   1.264       .  A
O474        V481   1.895       .  S
O474        C484   1.264       .  A
O475        V481   1.902   1_455  S
O475        C485   1.265       .  A
O476        V481   1.903       .  S
O476        C486   1.264       .  A
O477        V482   1.900       .  S
O477        C486   1.266       .  A
O478        V482   1.903   1_455  S
O478        C485   1.264       .  A
O479        V482   1.897       .  S
O479        C484   1.262       .  A
O480        V482   1.895   1_455  S
O480        C483   1.263       .  A
V481        V482   2.087       .  T
C483        C982   1.476       .  S
C486        C955   1.484       .  S
C487        C912   1.591       .  S
C487        C925   1.573       .  S
C487        C975   1.588       .  S
C487       C2045   1.563       .  S
O488        V496   1.905       .  S
O488        C498   1.267       .  A
O489        V496   1.906   1_565  S
O489        C499   1.266       .  A
O490        V496   1.905       .  S
O490        C500   1.264       .  A
O491        V496   1.899   1_565  S
O491        C501   1.264       .  A
O492        V497   1.908   1_565  S
O492        C501   1.266       .  A
O493        V497   1.907       .  S
O493        C500   1.267       .  A
O494        V497   1.891   1_565  S
O494        C499   1.261       .  A
O495        V497   1.879       .  S
O495        C498   1.260       .  A
V496        V497   2.087       .  T
C498       C1885   1.480       .  S
C499        C514   1.464       .  S
C500        C527   1.474       .  S
C501       C1545   1.478       .  S
O502        V510   1.909       .  S
O502        C512   1.267       .  A
O503        V510   1.911   1_455  S
O503        C513   1.267       .  A
O504        V510   1.900       .  S
O504        C514   1.263       .  A
O505        V510   1.895   1_455  S
O505        C515   1.263       .  A
O506        V511   1.896   1_455  S
O506        C515   1.264       .  A
O507        V511   1.897       .  S
O507        C514   1.264       .  A
O508        V511   1.903   1_455  S
O508        C513   1.264       .  A
O509        V511   1.901       .  S
O509        C512   1.265       .  A
V510        V511   2.086       .  T
C512        C905   1.495       .  S
C513        C544   1.476       .  S
C515       C2152   1.475       .  S
O516        V524   1.910   1_455  S
O516        C526   1.269       .  A
O517        V524   1.913       .  S
O517        C527   1.268       .  A
O518        V524   1.899   1_455  S
O518        C528   1.262       .  A
O519        V524   1.895       .  S
O519        C529   1.261       .  A
O520        V525   1.911       .  S
O520        C529   1.267       .  A
O521        V525   1.905   1_455  S
O521        C528   1.267       .  A
O522        V525   1.899       .  S
O522        C527   1.263       .  A
O523        V525   1.895   1_455  S
O523        C526   1.261       .  A
V524        V525   2.087       .  T
C526        C885   1.479       .  S
C528        C542   1.468       .  S
C529        C895   1.471       .  S
C530        C872   1.586       .  S
C530        C892   1.587       .  S
C530       C1035   1.598       .  S
C530       C1875   1.557       .  S
O531        V539   1.891   1_565  S
O531        C541   1.261       .  A
O532        V539   1.894       .  S
O532        C542   1.261       .  A
O533        V539   1.903       .  S
O533        C543   1.266       .  A
O534        V539   1.909   1_565  S
O534        C544   1.267       .  A
O535        V540   1.905   1_565  S
O535        C544   1.264       .  A
O536        V540   1.893       .  S
O536        C543   1.262       .  A
O537        V540   1.909       .  S
O537        C542   1.267       .  A
O538        V540   1.905   1_565  S
O538        C541   1.265       .  A
V539        V540   2.089       .  T
C541        C865   1.465       .  S
C543        C852   1.474       .  S
C545        C842   1.571       .  S
C545        C862   1.568       .  S
C545       C1235   1.571       .  S
C545       C2142   1.551       .  S
C546        C815   1.575       .  S
C546        C822   1.593       .  S
C546        C832   1.573       .  S
C546        C882   1.591       .  S
C547        C795   1.567       .  S
C547        C802   1.574       .  S
C547        C812   1.566       .  S
C547        C855   1.562       .  S
O548        V556   1.914       .  S
O548        C558   1.268       .  A
O549        V556   1.920       .  S
O549        C559   1.269       .  A
O550        V556   1.894       .  S
O550        C560   1.261       .  A
O551        V556   1.880       .  S
O551        C561   1.261       .  A
O552        V557   1.909       .  S
O552        C561   1.266       .  A
O553        V557   1.909       .  S
O553        C560   1.267       .  A
O554        V557   1.905       .  S
O554        C559   1.265       .  A
O555        V557   1.894       .  S
O555        C558   1.263       .  A
V556        V557   2.085       .  T
C558        C945   1.484       .  S
C559        C717   1.484       .  S
C561        C845   1.478       .  S
O562        V570   1.910       .  S
O562        C572   1.267       .  A
O563        V570   1.908       .  S
O563        C573   1.265       .  A
O564        V570   1.897       .  S
O564        C574   1.263       .  A
O565        V570   1.893       .  S
O565        C575   1.264       .  A
O566        V571   1.903       .  S
O566        C575   1.264       .  A
O567        V571   1.903       .  S
O567        C574   1.264       .  A
O568        V571   1.899       .  S
O568        C573   1.264       .  A
O569        V571   1.904       .  S
O569        C572   1.266       .  A
V570        V571   2.087       .  T
C572        C995   1.494       .  S
C573        C659   1.470       .  S
C575        C835   1.474       .  S
O576        V584   1.900       .  S
O576        C586   1.266       .  A
O577        V584   1.907       .  S
O577        C587   1.265       .  A
O578        V584   1.907       .  S
O578        C588   1.264       .  A
O579        V584   1.901       .  S
O579        C589   1.263       .  A
O580        V585   1.901       .  S
O580        C589   1.264       .  A
O581        V585   1.897       .  S
O581        C588   1.264       .  A
O582        V585   1.895       .  S
O582        C587   1.263       .  A
O583        V585   1.901       .  S
O583        C586   1.263       .  A
V584        V585   2.089       .  T
C586        C915   1.477       .  S
C587        C690   1.467       .  S
C589        C805   1.469       .  S
O590        V598   1.899       .  S
O590        C600   1.264       .  A
O591        V598   1.901       .  S
O591        C601   1.265       .  A
O592        V598   1.893       .  S
O592        C602   1.263       .  A
O593        V598   1.902       .  S
O593        C603   1.264       .  A
O594        V599   1.893       .  S
O594        C603   1.264       .  A
O595        V599   1.893       .  S
O595        C602   1.262       .  A
O596        V599   1.894       .  S
O596        C601   1.262       .  A
O597        V599   1.893       .  S
O597        C600   1.264       .  A
V598        V599   2.088       .  T
C600        C965   1.477       .  S
C601        C632   1.462       .  S
C603        C875   1.474       .  S
C604        C775   1.581       .  S
C604        C785   1.559       .  S
C604        C825   1.573       .  S
C604       C1055   1.582       .  S
C605        C755   1.591       .  S
C605        C765   1.595       .  S
C605        C772   1.597       .  S
C605       C1012   1.562       .  S
O606        V614   1.891       .  S
O606        C616   1.264       .  A
O607        V614   1.897       .  S
O607        C617   1.263       .  A
O608        V614   1.897       .  S
O608        C618   1.264       .  A
O609        V614   1.893       .  S
O609        C619   1.264       .  A
O610        V615   1.897       .  S
O610        C619   1.263       .  A
O611        V615   1.904       .  S
O611        C618   1.264       .  A
O612        V615   1.913       .  S
O612        C617   1.267       .  A
O613        V615   1.918       .  S
O613        C616   1.268       .  A
V614        V615   2.087       .  T
C616        C762   1.488       .  S
C618        C704   1.467       .  S
C619       C1075   1.475       .  S
O620        V628   1.901       .  S
O620        C630   1.264       .  A
O621        V628   1.904       .  S
O621        C631   1.266       .  A
O622        V628   1.896       .  S
O622        C632   1.262       .  A
O623        V628   1.896       .  S
O623        C633   1.264       .  A
O624        V629   1.897       .  S
O624        C633   1.264       .  A
O625        V629   1.899       .  S
O625        C632   1.264       .  A
O626        V629   1.911       .  S
O626        C631   1.266       .  A
O627        V629   1.904       .  S
O627        C630   1.264       .  A
V628        V629   2.088       .  T
C630       C1045   1.474       .  S
C633       C1135   1.478       .  S
O634        V642   1.903       .  S
O634        C644   1.265       .  A
O635        V642   1.903       .  S
O635        C645   1.264       .  A
O636        V642   1.908       .  S
O636        C646   1.266       .  A
O637        V642   1.908       .  S
O637        C647   1.266       .  A
O638        V643   1.889       .  S
O638        C647   1.262       .  A
O639        V643   1.898       .  S
O639        C646   1.263       .  A
O640        V643   1.909       .  S
O640        C645   1.267       .  A
O641        V643   1.909       .  S
O641        C644   1.267       .  A
V642        V643   2.087       .  T
C644       C1102   1.486       .  S
C645        C675   1.475       .  S
C647       C1005   1.474       .  S
O648        V656   1.893       .  S
O648        C658   1.261       .  A
O649        V656   1.896       .  S
O649        C659   1.263       .  A
O650        V656   1.904       .  S
O650        C660   1.265       .  A
O651        V656   1.896       .  S
O651        C661   1.265       .  A
O652        V657   1.897       .  S
O652        C661   1.263       .  A
O653        V657   1.901       .  S
O653        C660   1.264       .  A
O654        V657   1.910       .  S
O654        C659   1.266       .  A
O655        V657   1.901       .  S
O655        C658   1.264       .  A
V656        V657   2.089       .  T
C658       C1165   1.461       .  S
C661        C782   1.473       .  S
C662        C735   1.566       .  S
C662        C742   1.564       .  S
C662        C792   1.567       .  S
C662       C1215   1.563       .  S
C663        C722   1.572       .  S
C663        C732   1.562       .  S
C663        C752   1.564       .  S
C663       C1195   1.570       .  S
O664        V672   1.899       .  S
O664        C674   1.264       .  A
O665        V672   1.904       .  S
O665        C675   1.264       .  A
O666        V672   1.899       .  S
O666        C676   1.265       .  A
O667        V672   1.896       .  S
O667        C677   1.265       .  A
O668        V673   1.893       .  S
O668        C677   1.263       .  A
O669        V673   1.902       .  S
O669        C676   1.264       .  A
O670        V673   1.909       .  S
O670        C675   1.267       .  A
O671        V673   1.909       .  S
O671        C674   1.267       .  A
V672        V673   2.086       .  T
C674       C1285   1.483       .  S
C677       C1185   1.476       .  S
O678        V686   1.893       .  S
O678        C688   1.264       .  A
O679        V686   1.900       .  S
O679        C689   1.264       .  A
O680        V686   1.907       .  S
O680        C690   1.265       .  A
O681        V686   1.905       .  S
O681        C691   1.266       .  A
O682        V687   1.902       .  S
O682        C691   1.263       .  A
O683        V687   1.896       .  S
O683        C690   1.263       .  A
O684        V687   1.908       .  S
O684        C689   1.266       .  A
O685        V687   1.900       .  S
O685        C688   1.265       .  A
V686        V687   2.087       .  T
C688        C745   1.479       .  S
C691       C1335   1.471       .  S
O692        V700   1.898       .  S
O692        C702   1.263       .  A
O693        V700   1.909       .  S
O693        C703   1.265       .  A
O694        V700   1.906       .  S
O694        C704   1.266       .  A
O695        V700   1.912       .  S
O695        C705   1.267       .  A
O696        V701   1.896       .  S
O696        C705   1.263       .  A
O697        V701   1.895       .  S
O697        C704   1.263       .  A
O698        V701   1.912       .  S
O698        C703   1.268       .  A
O699        V701   1.910       .  S
O699        C702   1.268       .  A
V700        V701   2.086       .  T
C702        C725   1.486       .  S
C705       C1255   1.477       .  S
O706        V714   1.901       .  S
O706        C716   1.264       .  A
O707        V714   1.908       .  S
O707        C717   1.266       .  A
O708        V714   1.908       .  S
O708        C718   1.265       .  A
O709        V714   1.898       .  S
O709        C719   1.265       .  A
O710        V715   1.900       .  S
O710        C719   1.264       .  A
O711        V715   1.907       .  S
O711        C718   1.267       .  A
O712        V715   1.917       .  S
O712        C717   1.267       .  A
O713        V715   1.905       .  S
O713        C716   1.264       .  A
V714        V715   2.087       .  T
C716       C1305   1.472       .  S
C719       C1225   1.480       .  S
C720        C902   1.612       .  S
C720       C1115   1.559       .  S
C720       C1342   1.596       .  S
C720       C1515   1.565       .  S
C721        C722   1.422       .  A
C721        C726   1.400       .  A
C721        F728   1.358       .  S
C722        C723   1.428       .  A
C723        C724   1.401       .  A
C723        F730   1.354       .  S
C724        C725   1.401       .  A
C724        F729   1.358       .  S
C725        C726   1.404       .  A
C726        F727   1.358       .  S
C731        C732   1.416       .  A
C731        C736   1.400       .  A
C731        F738   1.355       .  S
C732        C733   1.418       .  A
C733        C734   1.390       .  A
C733        F740   1.357       .  S
C734        C735   1.414       .  A
C734        F739   1.358       .  S
C735        C736   1.424       .  A
C736        F737   1.355       .  S
C741        C742   1.425       .  A
C741        C746   1.395       .  A
C741        F748   1.355       .  S
C742        C743   1.421       .  A
C743        C744   1.397       .  A
C743        F750   1.358       .  S
C744        C745   1.402       .  A
C744        F749   1.358       .  S
C745        C746   1.402       .  A
C746        F747   1.359       .  S
C751        C752   1.407       .  A
C751        C756   1.389       .  A
C751        F758   1.358       .  S
C752        C753   1.420       .  A
C753        C754   1.402       .  A
C753        F760   1.355       .  S
C754        C755   1.424       .  A
C754        F759   1.352       .  S
C755        C756   1.425       .  A
C756        F757   1.351       .  S
C761        C762   1.398       .  A
C761        C766   1.392       .  A
C761        F768   1.359       .  S
C762        C763   1.403       .  A
C763        C764   1.411       .  A
C763        F770   1.358       .  S
C764        C765   1.430       .  A
C764        F769   1.354       .  S
C765        C766   1.424       .  A
C766        F767   1.347       .  S
C771        C772   1.429       .  A
C771        C776   1.417       .  A
C771        F778   1.359       .  S
C772        C773   1.427       .  A
C773        C774   1.383       .  A
C773        F780   1.350       .  S
C774        C775   1.413       .  A
C774        F779   1.358       .  S
C775        C776   1.419       .  A
C776        F777   1.352       .  S
C781        C782   1.395       .  A
C781        C786   1.387       .  A
C781        F788   1.359       .  S
C782        C783   1.407       .  A
C783        C784   1.405       .  A
C783        F790   1.358       .  S
C784        C785   1.418       .  A
C784        F789   1.354       .  S
C785        C786   1.424       .  A
C786        F787   1.356       .  S
C791        C792   1.422       .  A
C791        C796   1.401       .  A
C791        F798   1.353       .  S
C792        C793   1.417       .  A
C793        C794   1.390       .  A
C793        F800   1.357       .  S
C794        C795   1.416       .  A
C794        F799   1.356       .  S
C795        C796   1.415       .  A
C796        F797   1.354       .  S
C801        C802   1.432       .  A
C801        C806   1.395       .  A
C801        F808   1.356       .  S
C802        C803   1.423       .  A
C803        C804   1.403       .  A
C803        F810   1.352       .  S
C804        C805   1.398       .  A
C804        F809   1.358       .  S
C805        C806   1.393       .  A
C806        F807   1.359       .  S
C811        C812   1.410       .  A
C811        C816   1.406       .  A
C811        F818   1.357       .  S
C812        C813   1.421       .  A
C813        C814   1.388       .  A
C813        F820   1.356       .  S
C814        C815   1.419       .  A
C814        F819   1.358       .  S
C815        C816   1.424       .  A
C816        F817   1.350       .  S
C821        C822   1.423       .  A
C821        C826   1.391       .  A
C821        F828   1.360       .  S
C822        C823   1.432       .  A
C823        C824   1.410       .  A
C823        F830   1.347       .  S
C824        C825   1.406       .  A
C824        F829   1.357       .  S
C825        C826   1.421       .  A
C826        F827   1.357       .  S
C831        C832   1.429       .  A
C831        C836   1.395       .  A
C831        F838   1.354       .  S
C832        C833   1.427       .  A
C833        C834   1.399       .  A
C833        F840   1.359       .  S
C834        C835   1.400       .  A
C834        F839   1.358       .  S
C835        C836   1.398       .  A
C836        F837   1.359       .  S
C841        C842   1.420       .  A
C841        C846   1.406       .  A
C841        F848   1.354       .  S
C842        C843   1.426       .  A
C843        C844   1.387       .  A
C843        F850   1.353       .  S
C844        C845   1.399       .  A
C844        F849   1.359       .  S
C845        C846   1.406       .  A
C846        F847   1.358       .  S
C851        C852   1.396       .  A
C851        C856   1.392       .  A
C851        F858   1.358       .  S
C852        C853   1.405       .  A
C853        C854   1.402       .  A
C853        F860   1.358       .  S
C854        C855   1.419       .  A
C854        F859   1.355       .  S
C855        C856   1.424       .  A
C856        F857   1.356       .  S
C861        C862   1.431       .  A
C861        C866   1.388       .  A
C861        F868   1.358       .  S
C862        C863   1.416       .  A
C863        C864   1.408       .  A
C863        F870   1.357       .  S
C864        C865   1.404       .  A
C864        F869   1.357       .  S
C865        C866   1.390       .  A
C866        F867   1.359       .  S
C871        C872   1.430       .  A
C871        C876   1.392       .  A
C871        F878   1.346       .  S
C872        C873   1.432       .  A
C873        C874   1.403       .  A
C873        F880   1.355       .  S
C874        C875   1.398       .  A
C874        F879   1.358       .  S
C875        C876   1.392       .  A
C876        F877   1.359       .  S
C881        C882   1.438       .  A
C881        C886   1.398       .  A
C881        F888   1.351       .  S
C882        C883   1.430       .  A
C883        C884   1.401       .  A
C883        F890   1.360       .  S
C884        C885   1.399       .  A
C884        F889   1.358       .  S
C885        C886   1.394       .  A
C886        F887   1.359       .  S
C891        C892   1.434       .  A
C891        C896   1.393       .  A
C891        F898   1.357       .  S
C892        C893   1.423       .  A
C893        C894   1.408       .  A
C893        F900   1.359       .  S
C894        C895   1.402       .  A
C894        F899   1.358       .  S
C895        C896   1.392       .  A
C896        F897   1.359       .  S
C901        C902   1.432       .  A
C901        C906   1.403       .  A
C901        F908   1.341       .  S
C902        C903   1.441       .  A
C903        C904   1.401       .  A
C903        F910   1.357       .  S
C904        C905   1.399       .  A
C904        F909   1.358       .  S
C905        C906   1.398       .  A
C906        F907   1.359       .  S
C911        C912   1.437       .  A
C911        C916   1.395       .  A
C911        F918   1.351       .  S
C912        C913   1.432       .  A
C913        C914   1.402       .  A
C913        F920   1.360       .  S
C914        C915   1.397       .  A
C914        F919   1.358       .  S
C915        C916   1.393       .  A
C916        F917   1.359       .  S
C921        C922   1.397       .  A
C921        C926   1.394       .  A
C921        F928   1.359       .  S
C922        C923   1.398       .  A
C923        C924   1.397       .  A
C923        F930   1.358       .  S
C924        C925   1.427       .  A
C924        F929   1.359       .  S
C925        C926   1.430       .  A
C926        F927   1.354       .  S
C931        C932   1.424       .  A
C931        C936   1.391       .  A
C931        F938   1.357       .  S
C932        C933   1.419       .  A
C933        C934   1.408       .  A
C933        F940   1.354       .  S
C934        C935   1.408       .  A
C934        F939   1.358       .  S
C935        C936   1.396       .  A
C936        F937   1.359       .  S
C941        C942   1.425       .  A
C941        C946   1.395       .  A
C941        F948   1.357       .  S
C942        C943   1.420       .  A
C943        C944   1.408       .  A
C943        F950   1.355       .  S
C944        C945   1.407       .  A
C944        F949   1.358       .  S
C945        C946   1.401       .  A
C946        F947   1.358       .  S
C951        C952   1.423       .  A
C951        C956   1.401       .  A
C951        F958   1.358       .  S
C952        C953   1.427       .  A
C953        C954   1.397       .  A
C953        F960   1.354       .  S
C954        C955   1.401       .  A
C954        F959   1.359       .  S
C955        C956   1.404       .  A
C956        F957   1.358       .  S
C961        C962   1.425       .  A
C961        C966   1.395       .  A
C961        F968   1.355       .  S
C962        C963   1.423       .  A
C963        C964   1.396       .  A
C963        F970   1.358       .  S
C964        C965   1.401       .  A
C964        F969   1.358       .  S
C965        C966   1.402       .  A
C966        F967   1.358       .  S
C971        C972   1.422       .  A
C971        C976   1.391       .  A
C971        F978   1.355       .  S
C972        C973   1.412       .  A
C973        C974   1.409       .  A
C973        F980   1.359       .  S
C974        C975   1.426       .  A
C974        F979   1.346       .  S
C975        C976   1.423       .  A
C976        F977   1.359       .  S
C981        C982   1.402       .  A
C981        C986   1.394       .  A
C981        F988   1.358       .  S
C982        C983   1.402       .  A
C983        C984   1.396       .  A
C983        F990   1.358       .  S
C984        C985   1.424       .  A
C984        F989   1.355       .  S
C985        C986   1.419       .  A
C986        F987   1.358       .  S
C991        C992   1.427       .  A
C991        C996   1.408       .  A
C991        F998   1.353       .  S
C992        C993   1.427       .  A
C993        C994   1.400       .  A
C993       F1000   1.357       .  S
C994        C995   1.402       .  A
C994        F999   1.358       .  S
C995        C996   1.405       .  A
C996        F997   1.358       .  S
C1001      C1002   1.427       .  A
C1001      C1006   1.395       .  A
C1001      F1008   1.354       .  S
C1002      C1003   1.429       .  A
C1003      C1004   1.399       .  A
C1003      F1010   1.359       .  S
C1004      C1005   1.398       .  A
C1004      F1009   1.358       .  S
C1005      C1006   1.399       .  A
C1006      F1007   1.359       .  S
C1011      C1012   1.428       .  A
C1011      C1016   1.397       .  A
C1011      F1018   1.358       .  S
C1012      C1013   1.421       .  A
C1013      C1014   1.397       .  A
C1013      F1020   1.357       .  S
C1014      C1015   1.406       .  A
C1014      F1019   1.358       .  S
C1015      C1016   1.405       .  A
C1016      F1017   1.358       .  S
C1021      C1022   1.396       .  A
C1021      C1026   1.400       .  A
C1021      F1028   1.358       .  S
C1022      C1023   1.393       .  A
C1023      C1024   1.393       .  A
C1023      F1030   1.360       .  S
C1024      C1025   1.435       .  A
C1024      F1029   1.351       .  S
C1025      C1026   1.432       .  A
C1026      F1027   1.360       .  S
C1031      C1032   1.422       .  A
C1031      C1036   1.401       .  A
C1031      F1038   1.358       .  S
C1032      C1033   1.415       .  A
C1033      C1034   1.394       .  A
C1033      F1040   1.354       .  S
C1034      C1035   1.423       .  A
C1034      F1039   1.359       .  S
C1035      C1036   1.417       .  A
C1036      F1037   1.351       .  S
C1041      C1042   1.431       .  A
C1041      C1046   1.399       .  A
C1041      F1048   1.348       .  S
C1042      C1043   1.434       .  A
C1043      C1044   1.402       .  A
C1043      F1050   1.359       .  S
C1044      C1045   1.395       .  A
C1044      F1049   1.358       .  S
C1045      C1046   1.394       .  A
C1046      F1047   1.359       .  S
C1051      C1052   1.400       .  A
C1051      C1056   1.397       .  A
C1051      F1058   1.358       .  S
C1052      C1053   1.407       .  A
C1053      C1054   1.409       .  A
C1053      F1060   1.358       .  S
C1054      C1055   1.422       .  A
C1054      F1059   1.354       .  S
C1055      C1056   1.427       .  A
C1056      F1057   1.357       .  S
C1061      C1062   1.396       .  A
C1061      C1066   1.399       .  A
C1061      F1068   1.359       .  S
C1062      C1063   1.399       .  A
C1063      C1064   1.393       .  A
C1063      F1070   1.359       .  S
C1064      C1065   1.433       .  A
C1064      F1069   1.352       .  S
C1065      C1066   1.435       .  A
C1066      F1067   1.347       .  S
C1071      C1072   1.422       .  A
C1071      C1076   1.396       .  A
C1071      F1078   1.358       .  S
C1072      C1073   1.426       .  A
C1073      C1074   1.394       .  A
C1073      F1080   1.355       .  S
C1074      C1075   1.400       .  A
C1074      F1079   1.359       .  S
C1075      C1076   1.401       .  A
C1076      F1077   1.358       .  S
C1081      C1082   1.401       .  A
C1081      C1086   1.397       .  A
C1081      F1088   1.358       .  S
C1082      C1083   1.402       .  A
C1083      C1084   1.396       .  A
C1083      F1090   1.359       .  S
C1084      C1085   1.425       .  A
C1084      F1089   1.355       .  S
C1085      C1086   1.423       .  A
C1086      F1087   1.358       .  S
C1091      C1092   1.419       .  A
C1091      C1096   1.405       .  A
C1091      F1098   1.354       .  S
C1092      C1093   1.422       .  A
C1093      C1094   1.386       .  A
C1093      F1100   1.355       .  S
C1094      C1095   1.395       .  A
C1094      F1099   1.359       .  S
C1095      C1096   1.406       .  A
C1096      F1097   1.358       .  S
C1101      C1102   1.404       .  A
C1101      C1106   1.405       .  A
C1101      F1108   1.358       .  S
C1102      C1103   1.402       .  A
C1103      C1104   1.399       .  A
C1103      F1110   1.358       .  S
C1104      C1105   1.427       .  A
C1104      F1109   1.357       .  S
C1105      C1106   1.423       .  A
C1106      F1107   1.354       .  S
C1111      C1112   1.429       .  A
C1111      C1116   1.396       .  A
C1111      F1118   1.354       .  S
C1112      C1113   1.427       .  A
C1113      C1114   1.390       .  A
C1113      F1120   1.345       .  S
C1114      C1115   1.412       .  A
C1114      F1119   1.360       .  S
C1115      C1116   1.418       .  A
C1116      F1117   1.355       .  S
C1121      C1122   1.402       .  A
C1121      C1126   1.387       .  A
C1121      F1128   1.359       .  S
C1122      C1123   1.399       .  A
C1123      C1124   1.392       .  A
C1123      F1130   1.358       .  S
C1124      C1125   1.420       .  A
C1124      F1129   1.355       .  S
C1125      C1126   1.422       .  A
C1126      F1127   1.356       .  S
C1131      C1132   1.424       .  A
C1131      C1136   1.400       .  A
C1131      F1138   1.355       .  S
C1132      C1133   1.422       .  A
C1133      C1134   1.396       .  A
C1133      F1140   1.354       .  S
C1134      C1135   1.399       .  A
C1134      F1139   1.358       .  S
C1135      C1136   1.402       .  A
C1136      F1137   1.358       .  S
C1141      C1142   1.423       .  A
C1141      C1146   1.399       .  A
C1141      F1148   1.353       .  S
C1142      C1143   1.418       .  A
C1143      C1144   1.387       .  A
C1143      F1150   1.358       .  S
C1144      C1145   1.416       .  A
C1144      F1149   1.359       .  S
C1145      C1146   1.415       .  A
C1146      F1147   1.354       .  S
C1151      C1152   1.387       .  A
C1151      C1156   1.388       .  A
C1151      F1158   1.360       .  S
C1152      C1153   1.404       .  A
C1153      C1154   1.410       .  A
C1153      F1160   1.357       .  S
C1154      C1155   1.420       .  A
C1154      F1159   1.358       .  S
C1155      C1156   1.437       .  A
C1156      F1157   1.356       .  S
C1161      C1162   1.424       .  A
C1161      C1166   1.402       .  A
C1161      F1168   1.356       .  S
C1162      C1163   1.433       .  A
C1163      C1164   1.391       .  A
C1163      F1170   1.351       .  S
C1164      C1165   1.388       .  A
C1164      F1169   1.360       .  S
C1165      C1166   1.398       .  A
C1166      F1167   1.358       .  S
C1171      C1172   1.411       .  A
C1171      C1176   1.406       .  A
C1171      F1178   1.359       .  S
C1172      C1173   1.423       .  A
C1173      C1174   1.390       .  A
C1173      F1180   1.352       .  S
C1174      C1175   1.420       .  A
C1174      F1179   1.360       .  S
C1175      C1176   1.428       .  A
C1176      F1177   1.347       .  S
C1181      C1182   1.425       .  A
C1181      C1186   1.395       .  A
C1181      F1188   1.356       .  S
C1182      C1183   1.419       .  A
C1183      C1184   1.394       .  A
C1183      F1190   1.357       .  S
C1184      C1185   1.402       .  A
C1184      F1189   1.358       .  S
C1185      C1186   1.402       .  A
C1186      F1187   1.358       .  S
C1191      C1192   1.402       .  A
C1191      C1196   1.399       .  A
C1191      F1198   1.358       .  S
C1192      C1193   1.403       .  A
C1193      C1194   1.397       .  A
C1193      F1200   1.358       .  S
C1194      C1195   1.425       .  A
C1194      F1199   1.355       .  S
C1195      C1196   1.424       .  A
C1196      F1197   1.357       .  S
C1201      C1202   1.427       .  A
C1201      C1206   1.407       .  A
C1201      F1208   1.354       .  S
C1202      C1203   1.424       .  A
C1203      C1204   1.400       .  A
C1203      F1210   1.354       .  S
C1204      C1205   1.402       .  A
C1204      F1209   1.358       .  S
C1205      C1206   1.404       .  A
C1206      F1207   1.358       .  S
C1211      C1212   1.402       .  A
C1211      C1216   1.394       .  A
C1211      F1218   1.359       .  S
C1212      C1213   1.401       .  A
C1213      C1214   1.396       .  A
C1213      F1220   1.358       .  S
C1214      C1215   1.423       .  A
C1214      F1219   1.357       .  S
C1215      C1216   1.424       .  A
C1216      F1217   1.355       .  S
C1221      C1222   1.418       .  A
C1221      C1226   1.405       .  A
C1221      F1228   1.353       .  S
C1222      C1223   1.428       .  A
C1223      C1224   1.392       .  A
C1223      F1230   1.358       .  S
C1224      C1225   1.398       .  A
C1224      F1229   1.358       .  S
C1225      C1226   1.407       .  A
C1226      F1227   1.358       .  S
C1231      C1232   1.416       .  A
C1231      C1236   1.376       .  A
C1231      F1238   1.356       .  S
C1232      C1233   1.423       .  A
C1233      C1234   1.416       .  A
C1233      F1240   1.353       .  S
C1234      C1235   1.420       .  A
C1234      F1239   1.354       .  S
C1235      C1236   1.415       .  A
C1236      F1237   1.355       .  S
C1241      C1242   1.424       .  A
C1241      C1246   1.389       .  A
C1241      F1248   1.358       .  S
C1242      C1243   1.419       .  A
C1243      C1244   1.406       .  A
C1243      F1250   1.354       .  S
C1244      C1245   1.407       .  A
C1244      F1249   1.358       .  S
C1245      C1246   1.398       .  A
C1246      F1247   1.359       .  S
C1251      C1252   1.430       .  A
C1251      C1256   1.394       .  A
C1251      F1258   1.353       .  S
C1252      C1253   1.420       .  A
C1253      C1254   1.408       .  A
C1253      F1260   1.354       .  S
C1254      C1255   1.403       .  A
C1254      F1259   1.358       .  S
C1255      C1256   1.394       .  A
C1256      F1257   1.359       .  S
C1261      C1262   1.395       .  A
C1261      C1266   1.397       .  A
C1261      F1268   1.359       .  S
C1262      C1263   1.393       .  A
C1263      C1264   1.396       .  A
C1263      F1270   1.359       .  S
C1264      C1265   1.428       .  A
C1264      F1269   1.355       .  S
C1265      C1266   1.424       .  A
C1266      F1267   1.352       .  S
C1271      C1272   1.421       .  A
C1271      C1276   1.409       .  A
C1271      F1278   1.354       .  S
C1272      C1273   1.426       .  A
C1273      C1274   1.393       .  A
C1273      F1280   1.350       .  S
C1274      C1275   1.392       .  A
C1274      F1279   1.358       .  S
C1275      C1276   1.403       .  A
C1276      F1277   1.357       .  S
C1281      C1282   1.422       .  A
C1281      C1286   1.405       .  A
C1281      F1288   1.354       .  S
C1282      C1283   1.424       .  A
C1283      C1284   1.396       .  A
C1283      F1290   1.357       .  S
C1284      C1285   1.400       .  A
C1284      F1289   1.358       .  S
C1285      C1286   1.405       .  A
C1286      F1287   1.358       .  S
C1291      C1292   1.393       .  A
C1291      C1296   1.395       .  A
C1291      F1298   1.359       .  S
C1292      C1293   1.398       .  A
C1293      C1294   1.402       .  A
C1293      F1300   1.358       .  S
C1294      C1295   1.422       .  A
C1294      F1299   1.353       .  S
C1295      C1296   1.432       .  A
C1296      F1297   1.356       .  S
C1301      C1302   1.431       .  A
C1301      C1306   1.392       .  A
C1301      F1308   1.353       .  S
C1302      C1303   1.420       .  A
C1303      C1304   1.409       .  A
C1303      F1310   1.356       .  S
C1304      C1305   1.404       .  A
C1304      F1309   1.358       .  S
C1305      C1306   1.390       .  A
C1306      F1307   1.358       .  S
C1311      C1312   1.416       .  A
C1311      C1316   1.387       .  A
C1311      F1318   1.361       .  S
C1312      C1313   1.426       .  A
C1313      C1314   1.415       .  A
C1313      F1320   1.354       .  S
C1314      C1315   1.417       .  A
C1314      F1319   1.355       .  S
C1315      C1316   1.415       .  A
C1316      F1317   1.347       .  S
C1321      C1322   1.437       .  A
C1321      C1326   1.411       .  A
C1321      F1328   1.356       .  S
C1322      C1323   1.438       .  A
C1323      C1324   1.389       .  A
C1323      F1330   1.338       .  S
C1324      C1325   1.384       .  A
C1324      F1329   1.361       .  S
C1325      C1326   1.398       .  A
C1326      F1327   1.357       .  S
C1331      C1332   1.423       .  A
C1331      C1336   1.412       .  A
C1331      F1338   1.358       .  S
C1332      C1333   1.438       .  A
C1333      C1334   1.387       .  A
C1333      F1340   1.351       .  S
C1334      C1335   1.385       .  A
C1334      F1339   1.360       .  S
C1335      C1336   1.404       .  A
C1336      F1337   1.357       .  S
C1341      C1342   1.426       .  A
C1341      C1346   1.406       .  A
C1341      F1348   1.359       .  S
C1342      C1343   1.439       .  A
C1343      C1344   1.386       .  A
C1343      F1350   1.354       .  S
C1344      C1345   1.384       .  A
C1344      F1349   1.360       .  S
C1345      C1346   1.398       .  A
C1346      F1347   1.358       .  S
C1351      C1352   1.443       .  A
C1351      C1356   1.399       .  A
C1351      F1358   1.351       .  S
C1352      C1353   1.435       .  A
C1353      C1354   1.404       .  A
C1353      F1360   1.359       .  S
C1354      C1355   1.399       .  A
C1354      F1359   1.358       .  S
C1355      C1356   1.392       .  A
C1356      F1357   1.359       .  S
C1361      C1362   1.426       .  A
C1361      C1366   1.398       .  A
C1361      F1368   1.355       .  S
C1362      C1363   1.428       .  A
C1363      C1364   1.395       .  A
C1363      F1370   1.359       .  S
C1364      C1365   1.398       .  A
C1364      F1369   1.358       .  S
C1365      C1366   1.400       .  A
C1366      F1367   1.358       .  S
C1371      C1372   1.425       .  A
C1371      C1376   1.418       .  A
C1371      F1378   1.359       .  S
C1372      C1373   1.427       .  A
C1373      C1374   1.378       .  A
C1373      F1380   1.350       .  S
C1374      C1375   1.412       .  A
C1374      F1379   1.358       .  S
C1375      C1376   1.422       .  A
C1376      F1377   1.351       .  S
C1381      C1382   1.425       .  A
C1381      C1386   1.390       .  A
C1381      F1388   1.358       .  S
C1382      C1383   1.424       .  A
C1383      C1384   1.394       .  A
C1383      F1390   1.357       .  S
C1384      C1385   1.402       .  A
C1384      F1389   1.358       .  S
C1385      C1386   1.406       .  A
C1386      F1387   1.359       .  S
C1391      C1392   1.426       .  A
C1391      C1396   1.389       .  A
C1391      F1398   1.348       .  S
C1392      C1393   1.429       .  A
C1393      C1394   1.409       .  A
C1393      F1400   1.353       .  S
C1394      C1395   1.403       .  A
C1394      F1399   1.358       .  S
C1395      C1396   1.395       .  A
C1396      F1397   1.359       .  S
C1401      C1402   1.396       .  A
C1401      C1406   1.388       .  A
C1401      F1408   1.359       .  S
C1402      C1403   1.399       .  A
C1403      C1404   1.398       .  A
C1403      F1410   1.358       .  S
C1404      C1405   1.429       .  A
C1404      F1409   1.349       .  S
C1405      C1406   1.435       .  A
C1406      F1407   1.354       .  S
C1411      C1412   1.432       .  A
C1411      C1416   1.392       .  A
C1411      F1418   1.359       .  S
C1412      C1413   1.422       .  A
C1413      C1414   1.396       .  A
C1413      F1420   1.352       .  S
C1414      C1415   1.403       .  A
C1414      F1419   1.358       .  S
C1415      C1416   1.398       .  A
C1416      F1417   1.359       .  S
C1421      C1422   1.418       .  A
C1421      C1426   1.414       .  A
C1421      F1428   1.356       .  S
C1422      C1423   1.418       .  A
C1423      C1424   1.385       .  A
C1423      F1430   1.357       .  S
C1424      C1425   1.421       .  A
C1424      F1429   1.357       .  S
C1425      C1426   1.419       .  A
C1426      F1427   1.353       .  S
C1431      C1432   1.422       .  A
C1431      C1436   1.407       .  A
C1431      F1438   1.354       .  S
C1432      C1433   1.423       .  A
C1433      C1434   1.396       .  A
C1433      F1440   1.357       .  S
C1434      C1435   1.402       .  A
C1434      F1439   1.358       .  S
C1435      C1436   1.405       .  A
C1436      F1437   1.358       .  S
C1441      C1442   1.431       .  A
C1441      C1446   1.392       .  A
C1441      F1448   1.356       .  S
C1442      C1443   1.421       .  A
C1443      C1444   1.405       .  A
C1443      F1450   1.354       .  S
C1444      C1445   1.400       .  A
C1444      F1449   1.358       .  S
C1445      C1446   1.392       .  A
C1446      F1447   1.359       .  S
C1451      C1452   1.401       .  A
C1451      C1456   1.393       .  A
C1451      F1458   1.358       .  S
C1452      C1453   1.402       .  A
C1453      C1454   1.398       .  A
C1453      F1460   1.358       .  S
C1454      C1455   1.424       .  A
C1454      F1459   1.355       .  S
C1455      C1456   1.420       .  A
C1456      F1457   1.358       .  S
C1461      C1462   1.426       .  A
C1461      C1466   1.399       .  A
C1461      F1468   1.358       .  S
C1462      C1463   1.425       .  A
C1463      C1464   1.408       .  A
C1463      F1470   1.354       .  S
C1464      C1465   1.405       .  A
C1464      F1469   1.358       .  S
C1465      C1466   1.402       .  A
C1466      F1467   1.358       .  S
C1471      C1472   1.408       .  A
C1471      C1476   1.410       .  A
C1471      F1478   1.359       .  S
C1472      C1473   1.420       .  A
C1473      C1474   1.390       .  A
C1473      F1480   1.356       .  S
C1474      C1475   1.428       .  A
C1474      F1479   1.360       .  S
C1475      C1476   1.430       .  A
C1476      F1477   1.343       .  S
C1481      C1482   1.418       .  A
C1481      C1486   1.393       .  A
C1481      F1488   1.345       .  S
C1482      C1483   1.428       .  A
C1483      C1484   1.407       .  A
C1483      F1490   1.354       .  S
C1484      C1485   1.421       .  A
C1484      F1489   1.358       .  S
C1485      C1486   1.410       .  A
C1486      F1487   1.345       .  S
C1491      C1492   1.426       .  A
C1491      C1496   1.395       .  A
C1491      F1498   1.358       .  S
C1492      C1493   1.426       .  A
C1493      C1494   1.407       .  A
C1493      F1500   1.353       .  S
C1494      C1495   1.404       .  A
C1494      F1499   1.358       .  S
C1495      C1496   1.402       .  A
C1496      F1497   1.358       .  S
C1501      C1502   1.421       .  A
C1501      C1506   1.394       .  A
C1501      F1508   1.358       .  S
C1502      C1503   1.423       .  A
C1503      C1504   1.396       .  A
C1503      F1510   1.355       .  S
C1504      C1505   1.403       .  A
C1504      F1509   1.358       .  S
C1505      C1506   1.400       .  A
C1506      F1507   1.358       .  S
C1511      C1512   1.421       .  A
C1511      C1516   1.402       .  A
C1511      F1518   1.352       .  S
C1512      C1513   1.413       .  A
C1513      C1514   1.386       .  A
C1513      F1520   1.355       .  S
C1514      C1515   1.415       .  A
C1514      F1519   1.348       .  S
C1515      C1516   1.420       .  A
C1516      F1517   1.357       .  S
C1521      C1522   1.411       .  A
C1521      C1526   1.388       .  A
C1521      F1528   1.358       .  S
C1522      C1523   1.419       .  A
C1523      C1524   1.409       .  A
C1523      F1530   1.356       .  S
C1524      C1525   1.421       .  A
C1524      F1529   1.354       .  S
C1525      C1526   1.420       .  A
C1526      F1527   1.352       .  S
C1531      C1532   1.422       .  A
C1531      C1536   1.390       .  A
C1531      F1538   1.351       .  S
C1532      C1533   1.423       .  A
C1533      C1534   1.402       .  A
C1533      F1540   1.354       .  S
C1534      C1535   1.399       .  A
C1534      F1539   1.358       .  S
C1535      C1536   1.395       .  A
C1536      F1537   1.358       .  S
C1541      C1542   1.424       .  A
C1541      C1546   1.405       .  A
C1541      F1548   1.353       .  S
C1542      C1543   1.427       .  A
C1543      C1544   1.395       .  A
C1543      F1550   1.354       .  S
C1544      C1545   1.395       .  A
C1544      F1549   1.359       .  S
C1545      C1546   1.401       .  A
C1546      F1547   1.358       .  S
C1551      C1552   1.409       .  A
C1551      C1556   1.388       .  A
C1551      F1558   1.356       .  S
C1552      C1553   1.408       .  A
C1553      C1554   1.403       .  A
C1553      F1560   1.356       .  S
C1554      C1555   1.436       .  A
C1554      F1559   1.353       .  S
C1555      C1556   1.420       .  A
C1556      F1557   1.344       .  S
C1561      C1562   1.429       .  A
C1561      C1566   1.379       .  A
C1561      F1568   1.355       .  S
C1562      C1563   1.432       .  A
C1563      C1564   1.414       .  A
C1563      F1570   1.344       .  S
C1564      C1565   1.419       .  A
C1564      F1569   1.351       .  S
C1565      C1566   1.406       .  A
C1566      F1567   1.358       .  S
C1571      C1572   1.402       .  A
C1571      C1576   1.394       .  A
C1571      F1578   1.358       .  S
C1572      C1573   1.402       .  A
C1573      C1574   1.396       .  A
C1573      F1580   1.358       .  S
C1574      C1575   1.427       .  A
C1574      F1579   1.356       .  S
C1575      C1576   1.430       .  A
C1576      F1577   1.360       .  S
C1581      C1582   1.427       .  A
C1581      C1586   1.399       .  A
C1581      F1588   1.348       .  S
C1582      C1583   1.437       .  A
C1583      C1584   1.393       .  A
C1583      F1590   1.355       .  S
C1584      C1585   1.395       .  A
C1584      F1589   1.359       .  S
C1585      C1586   1.396       .  A
C1586      F1587   1.359       .  S
C1591      C1592   1.417       .  A
C1591      C1596   1.390       .  A
C1591      F1598   1.358       .  S
C1592      C1593   1.425       .  A
C1593      C1594   1.404       .  A
C1593      F1600   1.353       .  S
C1594      C1595   1.414       .  A
C1594      F1599   1.354       .  S
C1595      C1596   1.416       .  A
C1596      F1597   1.357       .  S
C1601      C1602   1.418       .  A
C1601      C1606   1.393       .  A
C1601      F1608   1.358       .  S
C1602      C1603   1.419       .  A
C1603      C1604   1.399       .  A
C1603      F1610   1.355       .  S
C1604      C1605   1.423       .  A
C1604      F1609   1.355       .  S
C1605      C1606   1.416       .  A
C1606      F1607   1.358       .  S
C1611      C1612   1.424       .  A
C1611      C1616   1.396       .  A
C1611      F1618   1.357       .  S
C1612      C1613   1.425       .  A
C1613      C1614   1.395       .  A
C1613      F1620   1.355       .  S
C1614      C1615   1.401       .  A
C1614      F1619   1.359       .  S
C1615      C1616   1.400       .  A
C1616      F1617   1.358       .  S
C1621      C1622   1.427       .  A
C1621      C1626   1.397       .  A
C1621      F1628   1.354       .  S
C1622      C1623   1.422       .  A
C1623      C1624   1.399       .  A
C1623      F1630   1.358       .  S
C1624      C1625   1.402       .  A
C1624      F1629   1.358       .  S
C1625      C1626   1.400       .  A
C1626      F1627   1.359       .  S
C1631      C1632   1.417       .  A
C1631      C1636   1.404       .  A
C1631      F1638   1.353       .  S
C1632      C1633   1.412       .  A
C1633      C1634   1.389       .  A
C1633      F1640   1.359       .  S
C1634      C1635   1.422       .  A
C1634      F1639   1.343       .  S
C1635      C1636   1.425       .  A
C1636      F1637   1.358       .  S
C1641      C1642   1.420       .  A
C1641      C1646   1.390       .  A
C1641      F1648   1.359       .  S
C1642      C1643   1.426       .  A
C1643      C1644   1.407       .  A
C1643      F1650   1.347       .  S
C1644      C1645   1.410       .  A
C1644      F1649   1.359       .  S
C1645      C1646   1.423       .  A
C1646      F1647   1.355       .  S
C1651      C1652   1.430       .  A
C1651      C1656   1.394       .  A
C1651      F1658   1.353       .  S
C1652      C1653   1.428       .  A
C1653      C1654   1.400       .  A
C1653      F1660   1.359       .  S
C1654      C1655   1.399       .  A
C1654      F1659   1.358       .  S
C1655      C1656   1.397       .  A
C1656      F1657   1.359       .  S
C1661      C1662   1.431       .  A
C1661      C1666   1.401       .  A
C1661      F1668   1.360       .  S
C1662      C1663   1.436       .  A
C1663      C1664   1.395       .  A
C1663      F1670   1.350       .  S
C1664      C1665   1.393       .  A
C1664      F1669   1.359       .  S
C1665      C1666   1.397       .  A
C1666      F1667   1.358       .  S
C1671      C1672   1.411       .  A
C1671      C1676   1.378       .  A
C1671      F1678   1.358       .  S
C1672      C1673   1.416       .  A
C1673      C1674   1.415       .  A
C1673      F1680   1.354       .  S
C1674      C1675   1.430       .  A
C1674      F1679   1.353       .  S
C1675      C1676   1.418       .  A
C1676      F1677   1.351       .  S
C1681      C1682   1.419       .  A
C1681      C1686   1.376       .  A
C1681      F1688   1.355       .  S
C1682      C1683   1.415       .  A
C1683      C1684   1.416       .  A
C1683      F1690   1.357       .  S
C1684      C1685   1.429       .  A
C1684      F1689   1.350       .  S
C1685      C1686   1.412       .  A
C1686      F1687   1.357       .  S
C1691      C1692   1.406       .  A
C1691      C1696   1.404       .  A
C1691      F1698   1.358       .  S
C1692      C1693   1.404       .  A
C1693      C1694   1.394       .  A
C1693      F1700   1.358       .  S
C1694      C1695   1.425       .  A
C1694      F1699   1.358       .  S
C1695      C1696   1.420       .  A
C1696      F1697   1.354       .  S
C1701      C1702   1.434       .  A
C1701      C1706   1.389       .  A
C1701      F1708   1.357       .  S
C1702      C1703   1.418       .  A
C1703      C1704   1.408       .  A
C1703      F1710   1.357       .  S
C1704      C1705   1.404       .  A
C1704      F1709   1.357       .  S
C1705      C1706   1.389       .  A
C1706      F1707   1.360       .  S
C1711      C1712   1.414       .  A
C1711      C1716   1.389       .  A
C1711      F1718   1.358       .  S
C1712      C1713   1.420       .  A
C1713      C1714   1.404       .  A
C1713      F1720   1.355       .  S
C1714      C1715   1.414       .  A
C1714      F1719   1.358       .  S
C1715      C1716   1.419       .  A
C1716      F1717   1.353       .  S
C1721      C1722   1.420       .  A
C1721      C1726   1.411       .  A
C1721      F1728   1.355       .  S
C1722      C1723   1.432       .  A
C1723      C1724   1.396       .  A
C1723      F1730   1.357       .  S
C1724      C1725   1.394       .  A
C1724      F1729   1.359       .  S
C1725      C1726   1.404       .  A
C1726      F1727   1.357       .  S
C1731      C1732   1.420       .  A
C1731      C1736   1.410       .  A
C1731      F1738   1.355       .  S
C1732      C1733   1.427       .  A
C1733      C1734   1.390       .  A
C1733      F1740   1.352       .  S
C1734      C1735   1.390       .  A
C1734      F1739   1.358       .  S
C1735      C1736   1.404       .  A
C1736      F1737   1.357       .  S
C1741      C1742   1.423       .  A
C1741      C1746   1.391       .  A
C1741      F1748   1.345       .  S
C1742      C1743   1.428       .  A
C1743      C1744   1.397       .  A
C1743      F1750   1.353       .  S
C1744      C1745   1.415       .  A
C1744      F1749   1.355       .  S
C1745      C1746   1.410       .  A
C1746      F1747   1.358       .  S
C1751      C1752   1.430       .  A
C1751      C1756   1.393       .  A
C1751      F1758   1.358       .  S
C1752      C1753   1.424       .  A
C1753      C1754   1.406       .  A
C1753      F1760   1.351       .  S
C1754      C1755   1.405       .  A
C1754      F1759   1.358       .  S
C1755      C1756   1.398       .  A
C1756      F1757   1.358       .  S
C1761      C1762   1.419       .  A
C1761      C1766   1.378       .  A
C1761      F1768   1.355       .  S
C1762      C1763   1.426       .  A
C1763      C1764   1.419       .  A
C1763      F1770   1.359       .  S
C1764      C1765   1.416       .  A
C1764      F1769   1.357       .  S
C1765      C1766   1.419       .  A
C1766      F1767   1.358       .  S
C1771      C1772   1.421       .  A
C1771      C1776   1.392       .  A
C1771      F1778   1.359       .  S
C1772      C1773   1.425       .  A
C1773      C1774   1.398       .  A
C1773      F1780   1.355       .  S
C1774      C1775   1.403       .  A
C1774      F1779   1.358       .  S
C1775      C1776   1.401       .  A
C1776      F1777   1.358       .  S
C1781      C1782   1.410       .  A
C1781      C1786   1.388       .  A
C1781      F1788   1.357       .  S
C1782      C1783   1.412       .  A
C1783      C1784   1.405       .  A
C1783      F1790   1.355       .  S
C1784      C1785   1.435       .  A
C1784      F1789   1.354       .  S
C1785      C1786   1.420       .  A
C1786      F1787   1.344       .  S
C1791      C1792   1.421       .  A
C1791      C1796   1.400       .  A
C1791      F1798   1.352       .  S
C1792      C1793   1.433       .  A
C1793      C1794   1.391       .  A
C1793      F1800   1.357       .  S
C1794      C1795   1.390       .  A
C1794      F1799   1.359       .  S
C1795      C1796   1.397       .  A
C1796      F1797   1.358       .  S
C1801      C1802   1.417       .  A
C1801      C1806   1.388       .  A
C1801      F1808   1.359       .  S
C1802      C1803   1.423       .  A
C1803      C1804   1.405       .  A
C1803      F1810   1.351       .  S
C1804      C1805   1.412       .  A
C1804      F1809   1.356       .  S
C1805      C1806   1.421       .  A
C1806      F1807   1.356       .  S
C1811      C1812   1.423       .  A
C1811      C1816   1.393       .  A
C1811      F1818   1.356       .  S
C1812      C1813   1.422       .  A
C1813      C1814   1.406       .  A
C1813      F1820   1.354       .  S
C1814      C1815   1.405       .  A
C1814      F1819   1.358       .  S
C1815      C1816   1.398       .  A
C1816      F1817   1.358       .  S
C1821      C1822   1.421       .  A
C1821      C1826   1.419       .  A
C1821      F1828   1.355       .  S
C1822      C1823   1.414       .  A
C1823      C1824   1.384       .  A
C1823      F1830   1.356       .  S
C1824      C1825   1.414       .  A
C1824      F1829   1.356       .  S
C1825      C1826   1.422       .  A
C1826      F1827   1.355       .  S
C1831      C1832   1.426       .  A
C1831      C1836   1.390       .  A
C1831      F1838   1.350       .  S
C1832      C1833   1.419       .  A
C1833      C1834   1.408       .  A
C1833      F1840   1.356       .  S
C1834      C1835   1.403       .  A
C1834      F1839   1.358       .  S
C1835      C1836   1.391       .  A
C1836      F1837   1.358       .  S
C1841      C1842   1.425       .  A
C1841      C1846   1.397       .  A
C1841      F1848   1.357       .  S
C1842      C1843   1.421       .  A
C1843      C1844   1.405       .  A
C1843      F1850   1.355       .  S
C1844      C1845   1.404       .  A
C1844      F1849   1.358       .  S
C1845      C1846   1.401       .  A
C1846      F1847   1.358       .  S
C1851      C1852   1.416       .  A
C1851      C1856   1.403       .  A
C1851      F1858   1.354       .  S
C1852      C1853   1.418       .  A
C1853      C1854   1.387       .  A
C1853      F1860   1.359       .  S
C1854      C1855   1.415       .  A
C1854      F1859   1.352       .  S
C1855      C1856   1.427       .  A
C1856      F1857   1.358       .  S
C1861      C1862   1.427       .  A
C1861      C1866   1.393       .  A
C1861      F1868   1.350       .  S
C1862      C1863   1.425       .  A
C1863      C1864   1.400       .  A
C1863      F1870   1.359       .  S
C1864      C1865   1.398       .  A
C1864      F1869   1.358       .  S
C1865      C1866   1.393       .  A
C1866      F1867   1.358       .  S
C1871      C1872   1.416       .  A
C1871      C1876   1.392       .  A
C1871      F1878   1.345       .  S
C1872      C1873   1.427       .  A
C1873      C1874   1.402       .  A
C1873      F1880   1.356       .  S
C1874      C1875   1.413       .  A
C1874      F1879   1.354       .  S
C1875      C1876   1.413       .  A
C1876      F1877   1.359       .  S
C1881      C1882   1.430       .  A
C1881      C1886   1.392       .  A
C1881      F1888   1.351       .  S
C1882      C1883   1.436       .  A
C1883      C1884   1.397       .  A
C1883      F1890   1.349       .  S
C1884      C1885   1.395       .  A
C1884      F1889   1.359       .  S
C1885      C1886   1.399       .  A
C1886      F1887   1.359       .  S
C1891      C1892   1.415       .  A
C1891      C1896   1.384       .  A
C1891      F1898   1.357       .  S
C1892      C1893   1.411       .  A
C1893      C1894   1.412       .  A
C1893      F1900   1.356       .  S
C1894      C1895   1.438       .  A
C1894      F1899   1.357       .  S
C1895      C1896   1.415       .  A
C1896      F1897   1.342       .  S
C1901      C1902   1.397       .  A
C1901      C1906   1.390       .  A
C1901      F1908   1.359       .  S
C1902      C1903   1.398       .  A
C1903      C1904   1.401       .  A
C1903      F1910   1.358       .  S
C1904      C1905   1.430       .  A
C1904      F1909   1.349       .  S
C1905      C1906   1.436       .  A
C1906      F1907   1.357       .  S
C1911      C1912   1.398       .  A
C1911      C1916   1.402       .  A
C1911      F1918   1.358       .  S
C1912      C1913   1.400       .  A
C1913      C1914   1.406       .  A
C1913      F1920   1.358       .  S
C1914      C1915   1.432       .  A
C1914      F1919   1.356       .  S
C1915      C1916   1.426       .  A
C1916      F1917   1.348       .  S
C1921      C1922   1.422       .  A
C1921      C1926   1.381       .  A
C1921      F1928   1.356       .  S
C1922      C1923   1.433       .  A
C1923      C1924   1.410       .  A
C1923      F1930   1.350       .  S
C1924      C1925   1.423       .  A
C1924      F1929   1.357       .  S
C1925      C1926   1.403       .  A
C1926      F1927   1.359       .  S
C1931      C1932   1.430       .  A
C1931      C1936   1.396       .  A
C1931      F1938   1.355       .  S
C1932      C1933   1.430       .  A
C1933      C1934   1.391       .  A
C1933      F1940   1.360       .  S
C1934      C1935   1.400       .  A
C1934      F1939   1.358       .  S
C1935      C1936   1.399       .  A
C1936      F1937   1.359       .  S
C1941      C1942   1.430       .  A
C1941      C1946   1.395       .  A
C1941      F1948   1.353       .  S
C1942      C1943   1.419       .  A
C1943      C1944   1.398       .  A
C1943      F1950   1.342       .  S
C1944      C1945   1.414       .  A
C1944      F1949   1.345       .  S
C1945      C1946   1.410       .  A
C1946      F1947   1.357       .  S
C1951      C1952   1.421       .  A
C1951      C1956   1.400       .  A
C1951      F1958   1.357       .  S
C1952      C1953   1.423       .  A
C1953      C1954   1.393       .  A
C1953      F1960   1.357       .  S
C1954      C1955   1.397       .  A
C1954      F1959   1.358       .  S
C1955      C1956   1.401       .  A
C1956      F1957   1.358       .  S
C1961      C1962   1.410       .  A
C1961      C1966   1.384       .  A
C1961      F1968   1.357       .  S
C1962      C1963   1.424       .  A
C1963      C1964   1.410       .  A
C1963      F1970   1.353       .  S
C1964      C1965   1.417       .  A
C1964      F1969   1.354       .  S
C1965      C1966   1.418       .  A
C1966      F1967   1.351       .  S
C1971      C1972   1.427       .  A
C1971      C1976   1.414       .  A
C1971      F1978   1.355       .  S
C1972      C1973   1.409       .  A
C1973      C1974   1.386       .  A
C1973      F1980   1.357       .  S
C1974      C1975   1.415       .  A
C1974      F1979   1.352       .  S
C1975      C1976   1.419       .  A
C1976      F1977   1.355       .  S
C1981      C1982   1.440       .  A
C1981      C1986   1.401       .  A
C1981      F1988   1.353       .  S
C1982      C1983   1.431       .  A
C1983      C1984   1.393       .  A
C1983      F1990   1.344       .  S
C1984      C1985   1.394       .  A
C1984      F1989   1.359       .  S
C1985      C1986   1.395       .  A
C1986      F1987   1.359       .  S
C1991      C1992   1.426       .  A
C1991      C1996   1.397       .  A
C1991      F1998   1.355       .  S
C1992      C1993   1.421       .  A
C1993      C1994   1.407       .  A
C1993      F2000   1.358       .  S
C1994      C1995   1.404       .  A
C1994      F1999   1.358       .  S
C1995      C1996   1.396       .  A
C1996      F1997   1.357       .  S
C2001      C2002   1.409       .  A
C2001      C2006   1.406       .  A
C2001      F2008   1.353       .  S
C2002      C2003   1.415       .  A
C2003      C2004   1.387       .  A
C2003      F2010   1.351       .  S
C2004      C2005   1.414       .  A
C2004      F2009   1.339       .  S
C2005      C2006   1.437       .  A
C2006      F2007   1.357       .  S
C2011      C2012   1.422       .  A
C2011      C2016   1.408       .  A
C2011      F2018   1.356       .  S
C2012      C2013   1.410       .  A
C2013      C2014   1.386       .  A
C2013      F2020   1.360       .  S
C2014      C2015   1.424       .  A
C2014      F2019   1.357       .  S
C2015      C2016   1.411       .  A
C2016      F2017   1.358       .  S
C2021      C2022   1.432       .  A
C2021      C2026   1.395       .  A
C2021      F2028   1.356       .  S
C2022      C2023   1.418       .  A
C2023      C2024   1.411       .  A
C2023      F2030   1.356       .  S
C2024      C2025   1.405       .  A
C2024      F2029   1.357       .  S
C2025      C2026   1.393       .  A
C2026      F2027   1.358       .  S
C2031      C2032   1.420       .  A
C2031      C2036   1.403       .  A
C2031      F2038   1.354       .  S
C2032      C2033   1.432       .  A
C2033      C2034   1.386       .  A
C2033      F2040   1.353       .  S
C2034      C2035   1.388       .  A
C2034      F2039   1.360       .  S
C2035      C2036   1.399       .  A
C2036      F2037   1.358       .  S
C2041      C2042   1.419       .  A
C2041      C2046   1.388       .  A
C2041      F2048   1.354       .  S
C2042      C2043   1.415       .  A
C2043      C2044   1.402       .  A
C2043      F2050   1.359       .  S
C2044      C2045   1.420       .  A
C2044      F2049   1.352       .  S
C2045      C2046   1.417       .  A
C2046      F2047   1.359       .  S
C2051      C2052   1.399       .  A
C2051      C2056   1.393       .  A
C2051      F2058   1.358       .  S
C2052      C2053   1.405       .  A
C2053      C2054   1.396       .  A
C2053      F2060   1.359       .  S
C2054      C2055   1.421       .  A
C2054      F2059   1.356       .  S
C2055      C2056   1.421       .  A
C2056      F2057   1.355       .  S
C2061      C2062   1.416       .  A
C2061      C2066   1.402       .  A
C2061      F2068   1.356       .  S
C2062      C2063   1.409       .  A
C2063      C2064   1.392       .  A
C2063      F2070   1.356       .  S
C2064      C2065   1.421       .  A
C2064      F2069   1.347       .  S
C2065      C2066   1.431       .  A
C2066      F2067   1.354       .  S
C2071      C2072   1.394       .  A
C2071      C2076   1.392       .  A
C2071      F2078   1.359       .  S
C2072      C2073   1.395       .  A
C2073      C2074   1.399       .  A
C2073      F2080   1.359       .  S
C2074      C2075   1.437       .  A
C2074      F2079   1.352       .  S
C2075      C2076   1.429       .  A
C2076      F2077   1.345       .  S
C2081      C2082   1.408       .  A
C2081      C2086   1.378       .  A
C2081      F2088   1.358       .  S
C2082      C2083   1.412       .  A
C2083      C2084   1.417       .  A
C2083      F2090   1.353       .  S
C2084      C2085   1.438       .  A
C2084      F2089   1.343       .  S
C2085      C2086   1.430       .  A
C2086      F2087   1.354       .  S
C2091      C2092   1.415       .  A
C2091      C2096   1.389       .  A
C2091      F2098   1.355       .  S
C2092      C2093   1.413       .  A
C2093      C2094   1.400       .  A
C2093      F2100   1.355       .  S
C2094      C2095   1.423       .  A
C2094      F2099   1.353       .  S
C2095      C2096   1.416       .  A
C2096      F2097   1.357       .  S
C2101      C2102   1.439       .  A
C2101      C2106   1.394       .  A
C2101      F2108   1.356       .  S
C2102      C2103   1.424       .  A
C2103      C2104   1.400       .  A
C2103      F2110   1.348       .  S
C2104      C2105   1.399       .  A
C2104      F2109   1.359       .  S
C2105      C2106   1.395       .  A
C2106      F2107   1.359       .  S
C2111      C2112   1.402       .  A
C2111      C2116   1.395       .  A
C2111      F2118   1.358       .  S
C2112      C2113   1.404       .  A
C2113      C2114   1.397       .  A
C2113      F2120   1.358       .  S
C2114      C2115   1.426       .  A
C2114      F2119   1.356       .  S
C2115      C2116   1.430       .  A
C2116      F2117   1.359       .  S
C2121      C2122   1.430       .  A
C2121      C2126   1.410       .  A
C2121      F2128   1.357       .  S
C2122      C2123   1.399       .  A
C2123      C2124   1.383       .  A
C2123      F2130   1.356       .  S
C2124      C2125   1.426       .  A
C2124      F2129   1.356       .  S
C2125      C2126   1.421       .  A
C2126      F2127   1.350       .  S
C2131      C2132   1.433       .  A
C2131      C2136   1.395       .  A
C2131      F2138   1.353       .  S
C2132      C2133   1.426       .  A
C2133      C2134   1.406       .  A
C2133      F2140   1.352       .  S
C2134      C2135   1.402       .  A
C2134      F2139   1.358       .  S
C2135      C2136   1.398       .  A
C2136      F2137   1.359       .  S
C2141      C2142   1.416       .  A
C2141      C2146   1.388       .  A
C2141      F2148   1.358       .  S
C2142      C2143   1.412       .  A
C2143      C2144   1.401       .  A
C2143      F2150   1.356       .  S
C2144      C2145   1.416       .  A
C2144      F2149   1.358       .  S
C2145      C2146   1.420       .  A
C2146      F2147   1.356       .  S
C2151      C2152   1.400       .  A
C2151      C2156   1.393       .  A
C2151      F2158   1.358       .  S
C2152      C2153   1.403       .  A
C2153      C2154   1.398       .  A
C2153      F2160   1.358       .  S
C2154      C2155   1.423       .  A
C2154      F2159   1.354       .  S
C2155      C2156   1.422       .  A
C2156      F2157   1.359       .  S
