geometry optimzed in LAMMPS
_audit_creation_date              2020-11-30 
_audit_creation_method            'lammps2cif' 
_symmetry_space_group_name_H-M    'P1' 
_symmetry_Int_Tables_number       1 
_symmetry_cell_setting            triclinic 
loop_ 
_symmetry_equiv_pos_as_xyz 
  x,y,z 
_cell_length_a                    36.57207044 
_cell_length_b                    36.50478253686447 
_cell_length_c                    44.85793007033475 
_cell_angle_alpha                 89.99517322993685 
_cell_angle_beta                  89.93046280280134 
_cell_angle_gamma                 119.94391269762194 
loop_ 
_atom_site_label 
_atom_site_type_symbol 
_atom_site_fract_x 
_atom_site_fract_y 
_atom_site_fract_z 
_atom_site_charge 
O1          O  0.61470149  0.84467172  0.07717492    -0.82300
C2          C  0.66056856  0.77451209  0.17406356     0.97100
O3          O  0.68500720  0.80595249  0.15813184    -0.71400
O4          O  0.68088094  0.79189255  0.10023843    -0.75000
Al5        Al  0.67660052  0.83278608  0.12385375     1.49000
C6          C  0.66354536  0.77861327  0.07524366     0.92400
O7          O  0.56505183  0.73006305  0.09990685    -0.81200
O8          O  0.56121559  0.81528066  0.15079021    -0.74700
Al9        Al  0.59134378  0.78818851  0.09064146     1.90100
O10         O  0.54852488  0.73461428  0.14615076    -0.73800
O11         O  0.63109195  0.83815324  0.18007333    -0.73700
O12         O  0.62118243  0.75953590  0.17277059    -0.79300
O13         O  0.67923703  0.87726143  0.14734165    -0.77500
O14         O  0.62038758  0.80317271  0.12468475    -1.13700
O15         O  0.68044487  0.86605017  0.08934985    -0.72900
C16         C  0.65364728  0.87027872  0.07412225     0.97900
C17         C  0.54304609  0.71314459  0.12279415     0.94300
Al18       Al  0.59293461  0.78821066  0.15944037     1.55600
O19         O  0.63126313  0.78070659  0.06833905    -0.77500
C20         C  0.66181583  0.87330681  0.17231683     0.98400
C21         C  0.53777412  0.80733656  0.12834274     0.93300
O22         O  0.54431262  0.79207649  0.10507035    -0.82800
O23         O  0.14558937  0.77314534  0.07716506    -0.82300
C24         C  0.21816611  0.88112829  0.17664249     0.97100
O25         O  0.18872753  0.87869955  0.16035927    -0.71400
O26         O  0.20199496  0.89013565  0.10269289    -0.75000
Al27       Al  0.15963386  0.84560862  0.12584057     1.49000
C28         C  0.21673424  0.88651322  0.07821769     0.92400
O29         O  0.25888388  0.82980821  0.10294851    -0.81200
O30         O  0.16502063  0.73974502  0.14889532    -0.74700
Al31       Al  0.20120951  0.80188019  0.09176910     1.90100
O32         O  0.24851566  0.80258689  0.14772500    -0.73800
O33         O  0.14756375  0.78908070  0.18056266    -0.73700
O34         O  0.22858344  0.85305403  0.17533997    -0.79300
O35         O  0.11307387  0.80581144  0.14890159    -0.77500
O36         O  0.18564266  0.81520037  0.12594235    -1.13700
O37         O  0.12572230  0.81813887  0.09137969    -0.72900
C38         C  0.12003509  0.78680351  0.07579051     0.97900
C39         C  0.27292440  0.82183109  0.12624003     0.94300
Al40       Al  0.19641682  0.79761982  0.16015823     1.55600
O41         O  0.21343362  0.85179723  0.07076648    -0.77500
C42         C  0.11450888  0.78924575  0.17312442     0.98400
C43         C  0.17203095  0.72421227  0.12595445     0.93300
O44         O  0.19224563  0.74787048  0.10435110    -0.82800
O45         O  0.13688988  0.36894276  0.17374057    -0.82300
C46         C  0.20821376  0.33512623  0.07234165     0.97100
O47         O  0.17938139  0.30796542  0.08890432    -0.71400
O48         O  0.19146751  0.30708883  0.14645328    -0.75000
Al49       Al  0.14998783  0.31134344  0.12333803     1.49000
C50         C  0.20613037  0.32440210  0.17120859     0.92400
O51         O  0.25075575  0.42387117  0.14793653    -0.81200
O52         O  0.15945140  0.42658559  0.10319072    -0.74700
Al53       Al  0.19292279  0.39517206  0.15904785     1.90100
O54         O  0.24152297  0.44304506  0.10346866    -0.73800
O55         O  0.13824916  0.35993452  0.07016380    -0.73700
O56         O  0.21821173  0.37349593  0.07341931    -0.79300
O57         O  0.10410267  0.30608812  0.10003668    -0.77500
O58         O  0.17689503  0.36786667  0.12421768    -1.13700
O59         O  0.11563352  0.30441646  0.15774615    -0.72900
C60         C  0.11077130  0.32973865  0.17440890     0.97900
C61         C  0.26513697  0.44728135  0.12527534     0.94300
Al62       Al  0.18826423  0.39795672  0.09053673     1.55600
O63         O  0.20343149  0.35591152  0.17920521    -0.77500
C64         C  0.10531705  0.32610724  0.07683729     0.98400
C65         C  0.16941275  0.44944388  0.12614502     0.93300
O66         O  0.18670408  0.44208066  0.14776290    -0.82800
O67         O  0.85821383  0.62408888  0.42464709    -0.82300
C68         C  0.78551564  0.66337640  0.32656517     0.97100
O69         O  0.81699677  0.68904937  0.34182825    -0.71400
O70         O  0.80398144  0.68767866  0.39934083    -0.75000
Al71       Al  0.84488453  0.68306656  0.37620822     1.49000
C72         C  0.78870735  0.66975837  0.42387453     0.92400
O73         O  0.74357963  0.57044834  0.40217522    -0.81200
O74         O  0.83019827  0.56729260  0.35246635    -0.74700
Al75       Al  0.80181040  0.59883584  0.41135326     1.90100
O76         O  0.74895969  0.55267146  0.35656799    -0.73800
O77         O  0.85071324  0.63575039  0.32118197    -0.73700
O78         O  0.77170814  0.62411009  0.32850044    -0.79300
O79         O  0.88943159  0.68588698  0.35281214    -0.77500
O80         O  0.81622647  0.62658569  0.37670915    -1.13100
O81         O  0.87880261  0.68904202  0.41048760    -0.72900
C82         C  0.88422853  0.66315601  0.42592870     0.97900
C83         C  0.72701082  0.54774265  0.37955511     0.94300
Al84       Al  0.80169937  0.59751812  0.34264754     1.55600
O85         O  0.79236563  0.63878475  0.43225199    -0.77500
C86         C  0.88535499  0.66752702  0.32822878     0.98400
C87         C  0.82381447  0.54526716  0.37565451     0.93300
O88         O  0.80771340  0.55208629  0.39838033    -0.82800
O89         O  0.84311280  0.21577825  0.32305377    -0.82300
C90         C  0.77278615  0.10898594  0.42406951     0.97100
O91         O  0.80369349  0.11338231  0.40853720    -0.71400
O92         O  0.79288117  0.10144422  0.35086186    -0.75000
Al93       Al  0.83285591  0.14731986  0.37424812     1.49000
C94         C  0.77585579  0.10303909  0.32692120     0.92400
O95         O  0.72985510  0.15839837  0.34987690    -0.81200
O96         O  0.81996558  0.25022184  0.39602225    -0.74700
Al97       Al  0.78773377  0.18670689  0.33876669     1.90100
O98         O  0.73869205  0.18466252  0.39464419    -0.73800
O99         O  0.84057642  0.20327935  0.42858468    -0.73700
O100        O  0.76110922  0.13613165  0.42261886    -0.79300
O101        O  0.87774638  0.18890981  0.39777290    -0.77500
O102        O  0.80418231  0.17532656  0.37340919    -1.13700
O103        O  0.86701803  0.17521303  0.33996373    -0.72900
C104        C  0.86987989  0.20360114  0.32234619     0.97900
C105        C  0.71516540  0.16676811  0.37261151     0.94300
Al106      Al  0.79134079  0.19200622  0.40742043     1.55600
O107        O  0.77618146  0.13627291  0.31922032    -0.77500
C108        C  0.87474998  0.20495459  0.42184008     0.98400
C109        C  0.81197180  0.26429814  0.37267087     0.93300
O110        O  0.79551398  0.24042986  0.35046032    -0.82800
O111        O  0.37457595  0.14904946  0.32663341    -0.82300
C112        C  0.33114931  0.21928945  0.42356601     0.97100
O113        O  0.30565859  0.18718473  0.40848898    -0.71400
O114        O  0.30747474  0.19788951  0.35029517    -0.75000
Al115      Al  0.31285899  0.15825402  0.37483113     1.49000
C116        C  0.32737485  0.21510508  0.32666422     0.92400
O117        O  0.42802161  0.26296175  0.35290632    -0.81200
O118        O  0.42533003  0.17161498  0.40155698    -0.74700
Al119      Al  0.39910325  0.20453227  0.34199165     1.90100
O120        O  0.44313929  0.25349418  0.39826659    -0.73800
O121        O  0.35668860  0.15307611  0.43190307    -0.73700
O122        O  0.37027768  0.23237618  0.42289008    -0.79300
O123        O  0.30990294  0.11384554  0.39892152    -0.77500
O124        O  0.36920599  0.18801454  0.37565095    -1.13700
O125        O  0.30907214  0.12393368  0.34111801    -0.72900
C126        C  0.33613375  0.12135010  0.32503882     0.97900
C127        C  0.45016190  0.27723871  0.37609588     0.94300
Al128      Al  0.39632594  0.20141836  0.41056904     1.55600
O129        O  0.36104872  0.21533848  0.32053720    -0.77500
C130        C  0.32650380  0.11783141  0.42414010     0.98400
C131        C  0.44819306  0.17861419  0.37875360     0.93300
O132        O  0.44356295  0.19659207  0.35617815    -0.82800
C133        C  0.48251075  0.16824554  0.37815291    -0.20300
C134        C  0.48513910  0.14012754  0.39856149     0.35900
C135        C  0.52014997  0.13392838  0.39727940    -0.26300
C136        C  0.55243222  0.15543997  0.37623229     0.02300
C137        C  0.54951032  0.18308952  0.35574734     0.27100
C138        C  0.51443644  0.18867039  0.35666543    -0.25400
N139        N  0.45264276  0.11820185  0.42047484    -0.82800
H140        H  0.52261567  0.11266389  0.41294025     0.12900
C141        C  0.59080684  0.15152376  0.37686802     0.02300
N142        N  0.58291410  0.20650860  0.33467494    -0.81400
H143        H  0.51297452  0.21052757  0.34103577     0.17800
C144        C  0.60373604  0.13998678  0.35077202    -0.26200
C145        C  0.64385490  0.14388322  0.34861530     0.35800
C146        C  0.67085480  0.15779986  0.37372792    -0.20300
C147        C  0.65630668  0.16635735  0.40047740    -0.25500
C148        C  0.61703750  0.16419138  0.40214069     0.27200
H149        H  0.58325882  0.13016473  0.33144436     0.12900
N150        N  0.65749981  0.13524816  0.32075036    -0.82800
H151        H  0.67640712  0.17666892  0.41998711     0.17800
N152        N  0.60450905  0.17655380  0.42899438    -0.81400
H153        H  0.63301154  0.12337399  0.30515519     0.33400
H154        H  0.68110333  0.16409794  0.31218549     0.37900
H155        H  0.62733419  0.18482153  0.44560442     0.33400
H156        H  0.60302393  0.20382584  0.42423671     0.30100
H157        H  0.57570318  0.22524530  0.32101121     0.33400
H158        H  0.60984830  0.22723663  0.34674549     0.30100
H159        H  0.42492026  0.09762629  0.40910732     0.37900
H160        H  0.45988892  0.09936833  0.43400701     0.33400
C161        C  0.48649244  0.32096649  0.37746420    -0.20300
C162        C  0.49013528  0.35390554  0.35894403     0.35900
C163        C  0.52699330  0.39377251  0.36019124    -0.26300
C164        C  0.56016936  0.40129362  0.37953687     0.02300
C165        C  0.55601823  0.36875408  0.39864894     0.27100
C166        C  0.51917944  0.32922293  0.39758105    -0.25400
N167        N  0.45647683  0.34698561  0.33915776    -0.82800
H168        H  0.53006428  0.41907248  0.34587642     0.12900
C169        C  0.60014555  0.44238907  0.37859894     0.02300
N170        N  0.58976162  0.37556281  0.41845823    -0.81400
H171        H  0.51675256  0.30418679  0.41189243     0.17800
C172        C  0.61666611  0.46501881  0.40512346    -0.26200
C173        C  0.65777052  0.49985323  0.40626817     0.35800
C174        C  0.68208634  0.51377135  0.37978509    -0.20300
C175        C  0.66401771  0.49285635  0.35283734    -0.25500
C176        C  0.62375005  0.45690121  0.35204620     0.27200
H177        H  0.59815380  0.45394726  0.42540223     0.12900
N178        N  0.67516659  0.51965232  0.43442521    -0.82800
H179        H  0.68207693  0.50343181  0.33235166     0.17800
N180        N  0.60749877  0.43411477  0.32460536    -0.81400
H181        H  0.65245816  0.50664491  0.45130510     0.33400
H182        H  0.69874118  0.51262988  0.44002426     0.37900
H183        H  0.62869751  0.44916941  0.30709264     0.33400
H184        H  0.60496536  0.40445940  0.32713923     0.30100
H185        H  0.58149615  0.34853622  0.43120053     0.33400
H186        H  0.61556855  0.38070844  0.40535871     0.30100
H187        H  0.43044591  0.34102140  0.35230773     0.37900
H188        H  0.46440145  0.37429344  0.32685615     0.33400
C189        C  0.82024924  0.30853861  0.37140004    -0.20300
C190        C  0.79645098  0.31993338  0.35250796     0.35900
C191        C  0.80430751  0.36174690  0.35257821    -0.26300
C192        C  0.83501131  0.39251592  0.37120290     0.02300
C193        C  0.85926655  0.38150929  0.38966980     0.27100
C194        C  0.85142635  0.33958470  0.38975813    -0.25400
N195        N  0.76338692  0.28882791  0.33402541    -0.82800
H196        H  0.78524490  0.37008947  0.33878299     0.12900
C197        C  0.83853985  0.43492971  0.37278899     0.02300
N198        N  0.89171848  0.41299392  0.40825187    -0.81400
H199        H  0.86987631  0.33116045  0.40413495     0.17800
C200        C  0.83055955  0.44850019  0.39998398    -0.26200
C201        C  0.82807871  0.48564729  0.40193073     0.35800
C202        C  0.83277337  0.50954096  0.37578395    -0.20300
C203        C  0.84306527  0.49699222  0.34884629    -0.25500
C204        C  0.84613065  0.46007868  0.34712795     0.27200
H205        H  0.82490271  0.42921243  0.41969547     0.12900
N206        N  0.81990429  0.49847040  0.43031336    -0.82800
H207        H  0.84744208  0.51525863  0.32877994     0.17800
N208        N  0.85612301  0.44752574  0.31931554    -0.81400
H209        H  0.81612484  0.47680789  0.44697445     0.33400
H210        H  0.84667626  0.52703873  0.43603018     0.37900
H211        H  0.86064226  0.46927236  0.30252990     0.33400
H212        H  0.88494317  0.44839765  0.32202174     0.30100
H213        H  0.90665127  0.39985676  0.42051865     0.33400
H214        H  0.91463770  0.43578999  0.39422154     0.30100
H215        H  0.73970494  0.26703719  0.34812511     0.37900
H216        H  0.74957889  0.30259974  0.32118611     0.33400
C217        C  0.91052951  0.22523299  0.44324389    -0.20300
C218        C  0.94515616  0.21803420  0.44266290     0.35900
C219        C  0.97524578  0.23437112  0.46573332    -0.26300
C220        C  0.97198568  0.25837828  0.48891790     0.02300
C221        C  0.93839666  0.26675869  0.48904589     0.27100
C222        C  0.90813052  0.25018646  0.46628502    -0.25400
N223        N  0.94927588  0.19345493  0.41924059    -0.82800
H224        H  0.00158104  0.22859998  0.96562896     0.12900
C225        C  0.00439372  0.27527279  0.01273301     0.02300
N226        N  0.93485342  0.29156075  0.51258235    -0.81400
H227        H  0.88207208  0.25635531  0.46687316     0.17800
C228        C  0.03083661  0.31906669  0.01523664    -0.26200
C229        C  0.06276696  0.33627519  0.03679222     0.35800
C230        C  0.06869676  0.30927815  0.05629885    -0.20300
C231        C  0.04105828  0.26542092  0.05451492    -0.25500
C232        C  0.00893247  0.24814487  0.03287375     0.27200
H233        H  0.02694411  0.34001216  0.50010269     0.12900
N234        N  0.08894926  0.38126657  0.03886384    -0.82800
H235        H  0.04529136  0.24448993  0.06943349     0.17800
N236        N  0.98107626  0.20322147  0.03108152    -0.81400
H237        H  0.06952698  0.39418435  0.04285955     0.33400
H238        H  0.10385030  0.39255910  0.01828726     0.37900
H239        H  0.98870400  0.18766781  0.04737732     0.33400
H240        H  0.95059715  0.19720106  0.03595737     0.30100
H241        H  0.90844274  0.29504980  0.50934918     0.33400
H242        H  0.92977171  0.27476354  0.53248317     0.30100
H243        H  0.95589131  0.21099224  0.39954812     0.37900
H244        H  0.97522626  0.18939880  0.42309133     0.33400
C245        C  0.90435544  0.22184374  0.29995644    -0.20300
C246        C  0.89776386  0.23323991  0.27113980     0.35900
C247        C  0.93126330  0.25059115  0.25054100    -0.26300
C248        C  0.97089048  0.25598534  0.25787670     0.02300
C249        C  0.97711411  0.24323412  0.28621409     0.27100
C250        C  0.94381830  0.22640423  0.30701156    -0.25400
N251        N  0.85687882  0.22630602  0.26265089    -0.82800
H252        H  0.92651239  0.25996123  0.22861335     0.12900
C253        C  0.00578139  0.27536013  0.23577022     0.02300
N254        N  0.01717846  0.24723041  0.29362676    -0.81400
H255        H  0.94873912  0.21699650  0.32887806     0.17800
C256        C  0.04160755  0.31427928  0.24235004    -0.26200
C257        C  0.07598955  0.33320224  0.22252283     0.35800
C258        C  0.07440418  0.31265691  0.19536987    -0.20300
C259        C  0.03803286  0.27402914  0.18862997    -0.25500
C260        C  0.00370083  0.25524268  0.20849336     0.27200
H261        H  0.04285674  0.32971348  0.26326930     0.12900
N262        N  0.11274079  0.37260444  0.23028533    -0.82800
H263        H  0.03646988  0.25824419  0.16781751     0.17800
N264        N  0.96696252  0.21556044  0.20127704    -0.81400
H265        H  0.10833590  0.38378156  0.25066644     0.33400
H266        H  0.13764790  0.36667589  0.23339290     0.37900
H267        H  0.97028564  0.20505803  0.18029763     0.33400
H268        H  0.96495197  0.19320060  0.21674121     0.30100
H269        H  0.01667302  0.23655034  0.31533569     0.33400
H270        H  0.02189084  0.22724924  0.27941304     0.30100
H271        H  0.83602826  0.19366233  0.26278299     0.37900
H272        H  0.85743676  0.23652246  0.24079516     0.33400
C273        C  0.31072895  0.23394668  0.30506163    -0.20300
C274        C  0.33757884  0.26468930  0.28411452     0.35900
C275        C  0.32018281  0.27857627  0.26203654    -0.26300
C276        C  0.27668339  0.26346490  0.26074565     0.02300
C277        C  0.24987555  0.23365865  0.28212240     0.27100
C278        C  0.26717114  0.21910613  0.30398684    -0.25400
N279        N  0.38249078  0.28195371  0.28538013    -0.82800
H280        H  0.34072879  0.30126406  0.24556024     0.12900
C281        C  0.25991835  0.27934516  0.23686558     0.02300
N282        N  0.20524001  0.21830793  0.28153861    -0.81400
H283        H  0.24643402  0.19551824  0.31991964     0.17800
C284        C  0.22773440  0.25043753  0.21803819    -0.26200
C285        C  0.21016186  0.26424238  0.19586562     0.35800
C286        C  0.22601555  0.30796275  0.19191017    -0.20300
C287        C  0.25909198  0.33686782  0.21012335    -0.25500
C288        C  0.27600947  0.32310267  0.23266177     0.27200
H289        H  0.21582722  0.21689778  0.22099095     0.12900
N290        N  0.17538594  0.23403272  0.17816696    -0.82800
H291        H  0.27118109  0.37045779  0.20716479     0.17800
N292        N  0.30880521  0.35336493  0.25171054    -0.81400
H293        H  0.16767613  0.20320728  0.18382436     0.33400
H294        H  0.14907085  0.23686632  0.18355270     0.37900
H295        H  0.31723800  0.38422150  0.24553064     0.33400
H296        H  0.29653385  0.34887253  0.27331146     0.30100
H297        H  0.18995608  0.19630523  0.29859156     0.33400
H298        H  0.20076328  0.24391948  0.28593837     0.30100
H299        H  0.39275098  0.29848707  0.30543141     0.37900
H300        H  0.39762353  0.30405796  0.26836448     0.33400
C301        C  0.31519810  0.24091135  0.44337531    -0.20300
C302        C  0.27596133  0.23878220  0.43852013     0.35900
C303        C  0.26132901  0.25753551  0.45924642    -0.26300
C304        C  0.28514190  0.27853119  0.48453265     0.02300
C305        C  0.32493033  0.28210816  0.48880417     0.27100
C306        C  0.33953945  0.26330581  0.46823123    -0.25400
N307        N  0.25111973  0.21766320  0.41267798    -0.82800
H308        H  0.23084169  0.25512103  0.45600708     0.12900
C309        C  0.26713910  0.29475429  0.00717613     0.02300
N310        N  0.35009562  0.30447876  0.01422554    -0.81400
H311        H  0.36976280  0.26537682  0.47205125     0.17800
C312        C  0.25800871  0.27664499  0.03574765    -0.26200
C313        C  0.23954186  0.28988561  0.05762450     0.35800
C314        C  0.22979085  0.32173585  0.05066325    -0.20300
C315        C  0.24001707  0.34066273  0.02230378    -0.25500
C316        C  0.25851576  0.32739927  0.00044224     0.27200
H317        H  0.26499545  0.25176760  0.04085990     0.12900
N318        N  0.23101636  0.27141033  0.08691458    -0.82800
H319        H  0.23274790  0.36529496  0.01699910     0.17800
N320        N  0.26850820  0.34680136  0.47145365    -0.81400
H321        H  0.24001579  0.24841622  0.08835877     0.33400
H322        H  0.24993166  0.29526088  0.10199332     0.37900
H323        H  0.25998446  0.37015961  0.47003728     0.33400
H324        H  0.30128578  0.36212132  0.46891581     0.30100
H325        H  0.37844161  0.30399624  0.01428177     0.33400
H326        H  0.35809766  0.33614425  0.01207561     0.30100
H327        H  0.26817846  0.23457580  0.39390684     0.37900
H328        H  0.22302112  0.21862724  0.41264128     0.33400
C329        C  0.23618345  0.92230872  0.05712992    -0.20300
C330        C  0.26881911  0.92754902  0.03768445     0.35900
C331        C  0.28347172  0.95900742  0.01570176    -0.26300
C332        C  0.26596499  0.98524373  0.01275658     0.02300
C333        C  0.23413842  0.98098420  0.03255247     0.27100
C334        C  0.21958130  0.94953910  0.05469062    -0.25400
N335        N  0.28748403  0.90129574  0.04042813    -0.82800
H336        H  0.30849778  0.96290485  0.50080026     0.12900
C337        C  0.28231629  0.01818076  0.48950721     0.02300
N338        N  0.21640885  0.00820260  0.02974268    -0.81400
H339        H  0.19434289  0.94542841  0.06947160     0.17800
C340        C  0.26092848  0.01055885  0.46231478    -0.26200
C341        C  0.27477424  0.04205355  0.44017116     0.35800
C342        C  0.31090519  0.08199241  0.44556724    -0.20300
C343        C  0.33279425  0.08864719  0.47269518    -0.25500
C344        C  0.31879852  0.05723917  0.49467350     0.27200
H345        H  0.23299981  0.98009575  0.45858594     0.12900
N346        N  0.25211244  0.03348642  0.41252419    -0.82800
H347        H  0.36083197  0.11874747  0.47707783     0.17800
N348        N  0.34140223  0.06478873  0.52229009    -0.81400
H349        H  0.22786902  0.00196361  0.41166033     0.33400
H350        H  0.23744191  0.05179136  0.41213464     0.37900
H351        H  0.36801861  0.09501591  0.52244939     0.33400
H352        H  0.32174541  0.06418351  0.03939602     0.30100
H353        H  0.19291141  0.00058938  0.04577864     0.33400
H354        H  0.24031895  0.03905644  0.03433630     0.30100
H355        H  0.28380007  0.88576939  0.02012586     0.37900
H356        H  0.31979147  0.92081290  0.04426146     0.33400
C357        C  0.32243865  0.08603148  0.30348328    -0.20300
C358        C  0.34073727  0.09260835  0.27474566     0.35900
C359        C  0.32525029  0.05887916  0.25437478    -0.26300
C360        C  0.29203836  0.01871506  0.26199784     0.02300
C361        C  0.27392663  0.01193257  0.29070616     0.27100
C362        C  0.28922987  0.04570199  0.31112714    -0.25400
N363        N  0.37355697  0.13390451  0.26575817    -0.82800
H364        H  0.33895397  0.06395337  0.23227342     0.12900
C365        C  0.27536645  0.98453219  0.23924427     0.02300
N366        N  0.23956836  0.97099859  0.29877252    -0.81400
H367        H  0.27504208  0.04061703  0.33306538     0.17800
C368        C  0.27725678  0.94764143  0.24444798    -0.26200
C369        C  0.25978014  0.91375858  0.22411445     0.35800
C370        C  0.23986392  0.91691654  0.19791343    -0.20300
C371        C  0.23926505  0.95450494  0.19240315    -0.25500
C372        C  0.25687903  0.98832089  0.21270342     0.27200
H373        H  0.29193880  0.94510762  0.26471875     0.12900
N374        N  0.26140302  0.87597146  0.23043683    -0.82800
H375        H  0.22459315  0.95740599  0.17225275     0.17800
N376        N  0.25546001  0.02628280  0.20671658    -0.81400
H377        H  0.27811442  0.87937334  0.25010911     0.33400
H378        H  0.23049493  0.85165286  0.23427547     0.37900
H379        H  0.24115128  0.02421043  0.18613874     0.33400
H380        H  0.23626452  0.02877683  0.22292975     0.30100
H381        H  0.22989668  0.97121032  0.32068211     0.33400
H382        H  0.21397230  0.96469058  0.28506759     0.30100
H383        H  0.40092989  0.14028525  0.27727428     0.37900
H384        H  0.38058621  0.13410971  0.24313735     0.33400
C385        C  0.07806263  0.77005397  0.19380947    -0.20300
C386        C  0.04734039  0.78280219  0.19502679     0.35900
C387        C  0.01654189  0.76653827  0.21766821    -0.26300
C388        C  0.01563854  0.73756096  0.23859813     0.02300
C389        C  0.04560651  0.72423512  0.23703223     0.27100
C390        C  0.07630351  0.74041350  0.21462437    -0.25400
N391        N  0.04818769  0.81301671  0.17407174    -0.82800
H392        H  0.99302025  0.77626871  0.21897964     0.12900
C393        C  0.98264511  0.72030988  0.26182802     0.02300
N394        N  0.04501836  0.69471607  0.25853971    -0.81400
H395        H  0.09951221  0.73024305  0.21374855     0.17800
C396        C  0.95307217  0.67706639  0.26139781    -0.26200
C397        C  0.92214448  0.65867871  0.28360335     0.35800
C398        C  0.92042114  0.68444365  0.30650320    -0.20300
C399        C  0.95066283  0.72770929  0.30716790    -0.25500
C400        C  0.98186616  0.74592118  0.28500376     0.27200
H401        H  0.95439915  0.65757041  0.24367999     0.12900
N402        N  0.89267824  0.61397369  0.28299190    -0.82800
H403        H  0.94938064  0.74756850  0.32461464     0.17800
N404        N  0.01271130  0.79019829  0.28587020    -0.81400
H405        H  0.89807905  0.59987380  0.26449745     0.33400
H406        H  0.89824559  0.60066411  0.30186652     0.37900
H407        H  0.00756472  0.80462043  0.30428382     0.33400
H408        H  0.04226981  0.79284574  0.28895656     0.30100
H409        H  0.06909543  0.68791488  0.25418075     0.33400
H410        H  0.05147933  0.70936647  0.27941834     0.30100
H411        H  0.04017197  0.79835666  0.15320250     0.37900
H412        H  0.02491108  0.82066451  0.17926358     0.33400
C413        C  0.08406487  0.76650070  0.05473191    -0.20300
C414        C  0.04730171  0.76987942  0.05782453     0.35900
C415        C  0.01463212  0.75002966  0.03684250    -0.26300
C416        C  0.01831016  0.72776436  0.01271106     0.02300
C417        C  0.05451261  0.72399433  0.00963321     0.27100
C418        C  0.08692441  0.74316814  0.03074476    -0.25400
N419        N  0.04281232  0.79277950  0.08229757    -0.82800
H420        H  0.98649164  0.75264555  0.03889876     0.12900
C421        C  0.98464210  0.70993064  0.49007989     0.02300
N422        N  0.05838914  0.70124591  0.98480507    -0.81400
H423        H  0.11492763  0.74044792  0.02809500     0.17800
C424        C  0.98955257  0.73296865  0.46397726    -0.26200
C425        C  0.95777767  0.71783024  0.44219158     0.35800
C426        C  0.92024581  0.67888585  0.44685628    -0.20300
C427        C  0.91607258  0.65537082  0.47276846    -0.25500
C428        C  0.94793352  0.67062800  0.49449294     0.27200
H429        H  0.01823065  0.76300217  0.46074044     0.12900
N430        N  0.96358593  0.74177607  0.41539951    -0.82800
H431        H  0.88738208  0.62552245  0.47648290     0.17800
N432        N  0.94302334  0.64679438  0.02118101    -0.81400
H433        H  0.99272945  0.76977782  0.41564661     0.33400
H434        H  0.96449697  0.72386112  0.39752525     0.37900
H435        H  0.91395929  0.61870369  0.02115364     0.33400
H436        H  0.96627476  0.63810447  0.02104725     0.30100
H437        H  0.08726061  0.70185308  0.98555699     0.33400
H438        H  0.03481008  0.66950292  0.48702626     0.30100
H439        H  0.06330402  0.82495125  0.07838368     0.37900
H440        H  0.01246593  0.78883758  0.08263569     0.33400
C441        C  0.16280273  0.48631171  0.12733538    -0.20300
C442        C  0.19053782  0.52345538  0.14338415     0.35900
C443        C  0.18461167  0.55830607  0.14261178    -0.26300
C444        C  0.15138839  0.55742852  0.12654408     0.02300
C445        C  0.12345557  0.52066190  0.11060013     0.27100
C446        C  0.12967019  0.48554344  0.11094442    -0.25400
N447        N  0.22600301  0.52762488  0.15982426    -0.82800
H448        H  0.20667702  0.58677766  0.15441880     0.12900
C449        C  0.14816579  0.59637294  0.12595295     0.02300
N450        N  0.08898090  0.51916010  0.09423755    -0.81400
H451        H  0.10843734  0.45738891  0.09851779     0.17800
C452        C  0.15242424  0.61709670  0.09877645    -0.26200
C453        C  0.15740659  0.65786689  0.09796430     0.35800
C454        C  0.15910400  0.67863528  0.12504891    -0.20300
C455        C  0.15154476  0.65639275  0.15200907    -0.25500
C456        C  0.14594295  0.61544428  0.15270654     0.27200
H457        H  0.15369717  0.60216139  0.07822878     0.12900
N458        N  0.16160914  0.67846598  0.06980839    -0.82800
H459        H  0.15187349  0.67164779  0.17280153     0.17800
N460        N  0.13938336  0.59355515  0.18057835    -0.81400
H461        H  0.16007195  0.65901846  0.05217219     0.33400
H462        H  0.13563463  0.68291850  0.06750058     0.37900
H463        H  0.13888997  0.61199534  0.19823568     0.33400
H464        H  0.10948041  0.56653568  0.17982526     0.30100
H465        H  0.07143601  0.48989721  0.08368311     0.33400
H466        H  0.06881413  0.52158797  0.10963871     0.30100
H467        H  0.24496288  0.52140474  0.14563760     0.37900
H468        H  0.21513774  0.50599961  0.17741476     0.33400
C469        C  0.67772435  0.90901038  0.19373244    -0.20300
C470        C  0.71648705  0.94708998  0.18972028     0.35900
C471        C  0.73180173  0.97727713  0.21272471    -0.26300
C472        C  0.70892642  0.97056050  0.23921309     0.02300
C473        C  0.66978410  0.93344535  0.24287425     0.27100
C474        C  0.65451517  0.90323306  0.22010699    -0.25400
N475        N  0.74052770  0.95484773  0.16273552    -0.82800
H476        H  0.76159603  0.00636250  0.20997812     0.12900
C477        C  0.72568373  0.00313577  0.26277104     0.02300
N478        N  0.64605616  0.92633333  0.26995757    -0.81400
H479        H  0.62458168  0.87450579  0.22339832     0.17800
C480        C  0.70342890  0.02396014  0.26994848    -0.26200
C481        C  0.71845027  0.05558734  0.29179485     0.35800
C482        C  0.75645101  0.06642781  0.30674066    -0.20300
C483        C  0.77813158  0.04475187  0.30016914    -0.25500
C484        C  0.76317541  0.01323465  0.27811095     0.27200
H485        H  0.67449467  0.01579153  0.25815666     0.12900
N486        N  0.69542046  0.07689617  0.29881471    -0.82800
H487        H  0.80749226  0.05345495  0.31153340     0.17800
N488        N  0.78597327  0.99172775  0.27099023    -0.81400
H489        H  0.66824947  0.06531876  0.28571887     0.33400
H490        H  0.68528874  0.06972699  0.32094292     0.37900
H491        H  0.81310000  0.00315565  0.28411690     0.33400
H492        H  0.76673086  0.95987595  0.27659482     0.30100
H493        H  0.61771612  0.89753215  0.26906554     0.33400
H494        H  0.66369142  0.92379625  0.28733687     0.30100
H495        H  0.72333042  0.95846568  0.14551634     0.37900
H496        H  0.76900052  0.98345693  0.16408370     0.33400
C497        C  0.75087573  0.07196509  0.44460666    -0.20300
C498        C  0.72636127  0.07187277  0.46919548     0.35900
C499        C  0.71022133  0.03803306  0.48959101    -0.26300
C500        C  0.71662931  0.00362999  0.48554977     0.02300
C501        C  0.73908421  0.00243212  0.46040512     0.27100
C502        C  0.75622075  0.03668253  0.44032094    -0.25400
N503        N  0.71874078  0.10644555  0.47396866    -0.82800
H504        H  0.69246023  0.03840029  0.50883489     0.12900
C505        C  0.70053731  0.96963569  0.00837202     0.02300
N506        N  0.74480605  0.96667249  0.45560865    -0.81400
H507        H  0.77422816  0.03595926  0.42136064     0.17800
C508        C  0.66461936  0.93059825  0.00226872    -0.26200
C509        C  0.64844972  0.89779129  0.02350894     0.35800
C510        C  0.66846179  0.90449520  0.05157555    -0.20300
C511        C  0.70466426  0.94352955  0.05746550    -0.25500
C512        C  0.72088894  0.97616602  0.03613836     0.27200
H513        H  0.64897872  0.92589613  0.48092587     0.12900
N514        N  0.61256319  0.85741020  0.01634975    -0.82800
H515        H  0.72035401  0.94854266  0.07879421     0.17800
N516        N  0.75809969  0.01589814  0.04243773    -0.81400
H517        H  0.60092735  0.85815766  0.49518194     0.33400
H518        H  0.62272434  0.83523242  0.01592218     0.37900
H519        H  0.76915365  0.01575543  0.06389926     0.33400
H520        H  0.78168514  0.01922326  0.02764026     0.30100
H521        H  0.76174700  0.97046835  0.43595425     0.33400
H522        H  0.76259171  0.96526705  0.97253789     0.30100
H523        H  0.69834525  0.10512567  0.45714699     0.37900
H524        H  0.70268404  0.10264951  0.49405426     0.33400
C525        C  0.76692060  0.68533576  0.44349716    -0.20300
C526        C  0.73378482  0.65739221  0.46249118     0.35900
C527        C  0.71633860  0.67361420  0.48278974    -0.26300
C528        C  0.73074339  0.71697101  0.48407629     0.02300
C529        C  0.76212491  0.74475640  0.46410570     0.27100
C530        C  0.78010855  0.72865918  0.44398672    -0.25400
N531        N  0.71756072  0.61259852  0.46078153    -0.82800
H532        H  0.69158684  0.65246142  0.99787146     0.12900
C533        C  0.71340061  0.73276980  0.00720684     0.02300
N534        N  0.77570499  0.78911027  0.46458396    -0.81400
H535        H  0.80509245  0.75006377  0.42914738     0.17800
C536        C  0.73896488  0.75554062  0.03130912    -0.26200
C537        C  0.72342806  0.77023105  0.05426077     0.35800
C538        C  0.68119744  0.76160386  0.05299699    -0.20300
C539        C  0.65558725  0.73815205  0.02886400    -0.25500
C540        C  0.67131257  0.72374726  0.00594304     0.27200
H541        H  0.77123819  0.76191022  0.03211605     0.12900
N542        N  0.75062247  0.79431977  0.07842470    -0.82800
H543        H  0.62316300  0.73124808  0.02769810     0.17800
N544        N  0.64481764  0.70005332  0.48135450    -0.81400
H545        H  0.78010243  0.79644066  0.07639799     0.33400
H546        H  0.75599205  0.82517729  0.07660319     0.37900
H547        H  0.61452674  0.69584609  0.48388236     0.33400
H548        H  0.65753557  0.71813880  0.46206426     0.30100
H549        H  0.79912634  0.80526594  0.44854734     0.33400
H550        H  0.74991550  0.79241666  0.45845688     0.30100
H551        H  0.70374832  0.60284851  0.43976211     0.37900
H552        H  0.69346738  0.59656026  0.47639657     0.33400
C553        C  0.67825347  0.75628719  0.19554437    -0.20300
C554        C  0.71717597  0.75782255  0.19042398     0.35900
C555        C  0.73352671  0.74214164  0.21227483    -0.26300
C556        C  0.71189231  0.72500895  0.23911494     0.02300
C557        C  0.67286571  0.72294414  0.24411505     0.27100
C558        C  0.65640176  0.73846059  0.22229321    -0.25400
N559        N  0.73977717  0.77490784  0.16301047    -0.82800
H560        H  0.76337807  0.74336457  0.20844563     0.12900
C561        C  0.73019738  0.70884578  0.26168921     0.02300
N562        N  0.65016315  0.70509700  0.27137590    -0.81400
H563        H  0.62665519  0.73731267  0.22645130     0.17800
C564        C  0.74509769  0.73030793  0.28884122    -0.26200
C565        C  0.76334499  0.71632877  0.31048220     0.35800
C566        C  0.76592051  0.67946935  0.30501894    -0.20300
C567        C  0.75014214  0.65764955  0.27802487    -0.25500
C568        C  0.73255243  0.67206191  0.25629023     0.27200
H569        H  0.74293968  0.75842020  0.29295789     0.12900
N570        N  0.77803592  0.73876501  0.33820236    -0.82800
H571        H  0.75214941  0.62951094  0.27364861     0.17800
N572        N  0.71695347  0.64946220  0.22873459    -0.81400
H573        H  0.77045371  0.76279545  0.33962186     0.33400
H574        H  0.81097664  0.75394850  0.33805978     0.37900
H575        H  0.72124717  0.62322245  0.22809135     0.33400
H576        H  0.68439464  0.63775568  0.22814311     0.30100
H577        H  0.62212023  0.70615348  0.27174907     0.33400
H578        H  0.64154137  0.67313928  0.27173219     0.30100
H579        H  0.72120359  0.75529674  0.14568785     0.37900
H580        H  0.76786741  0.77393478  0.16283512     0.33400
C581        C  0.31753269  0.83237718  0.12788070    -0.20300
C582        C  0.33657002  0.83266435  0.15541710     0.35900
C583        C  0.37573944  0.83432920  0.15546140    -0.26300
C584        C  0.39668448  0.83694291  0.12870897     0.02300
C585        C  0.37977379  0.84103275  0.10149866     0.27100
C586        C  0.34025704  0.83858716  0.10132933    -0.25400
N587        N  0.31572287  0.83029152  0.18315889    -0.82800
H588        H  0.38914819  0.83176616  0.17635054     0.12900
C589        C  0.43360016  0.83055972  0.12912772     0.02300
N590        N  0.40225375  0.84619032  0.07408377    -0.81400
H591        H  0.32633941  0.83947407  0.08022358     0.17800
C592        C  0.43081797  0.79607199  0.11345242    -0.26200
C593        C  0.46419453  0.78776178  0.11345327     0.35800
C594        C  0.50151890  0.81462023  0.12919259    -0.20300
C595        C  0.50390986  0.84842633  0.14573673    -0.25500
C596        C  0.47022315  0.85676030  0.14578974     0.27200
H597        H  0.40218689  0.77501571  0.10143903     0.12900
N598        N  0.45951205  0.75117983  0.09816810    -0.82800
H599        H  0.53237088  0.86880426  0.15812436     0.17800
N600        N  0.47312283  0.89177428  0.16240579    -0.81400
H601        H  0.45319108  0.75352883  0.07574813     0.33400
H602        H  0.43342791  0.72446775  0.10716429     0.37900
H603        H  0.50205127  0.90780330  0.17350899     0.33400
H604        H  0.47253642  0.91310403  0.14712877     0.30100
H605        H  0.38539173  0.84837887  0.05602402     0.33400
H606        H  0.43049284  0.87504924  0.07525224     0.30100
H607        H  0.31364624  0.85775632  0.18498889     0.37900
H608        H  0.33381423  0.83038811  0.20122001     0.33400
C609        C  0.30911202  0.48214548  0.12464818    -0.20300
C610        C  0.34260693  0.47849593  0.13701249     0.35900
C611        C  0.38370700  0.51360371  0.13619240    -0.26300
C612        C  0.39140310  0.55208309  0.12371792     0.02300
C613        C  0.35766055  0.55580677  0.11197997     0.27100
C614        C  0.31709868  0.52051476  0.11191796    -0.25400
N615        N  0.33484619  0.43925105  0.15000594    -0.82800
H616        H  0.40979372  0.51107235  0.14528431     0.12900
C617        C  0.43451071  0.58907396  0.12352139     0.02300
N618        N  0.36465503  0.59575090  0.10078513    -0.81400
H619        H  0.29122810  0.52340810  0.10278251     0.17800
C620        C  0.45221961  0.60854146  0.09621113    -0.26200
C621        C  0.48870821  0.64845386  0.09512564     0.35800
C622        C  0.50867133  0.66858658  0.12209164    -0.20300
C623        C  0.49271575  0.64729629  0.14927699    -0.25500
C624        C  0.45555695  0.60787668  0.15030069     0.27200
H625        H  0.43589348  0.59360864  0.07572011     0.12900
N626        N  0.50388493  0.66934423  0.06689160    -0.82800
H627        H  0.50821412  0.66234367  0.16995958     0.17800
N628        N  0.43814048  0.58782146  0.17844231    -0.81400
H629        H  0.48637223  0.64946516  0.04935104     0.33400
H630        H  0.49856456  0.69495199  0.06632812     0.37900
H631        H  0.45768800  0.60573045  0.19599445     0.33400
H632        H  0.40947628  0.58721640  0.18135856     0.30100
H633        H  0.33651147  0.59308504  0.09294589     0.33400
H634        H  0.37439214  0.61689315  0.11869041     0.30100
H635        H  0.32440884  0.41666384  0.13301147     0.37900
H636        H  0.36286615  0.44199281  0.15818918     0.33400
O637        O  0.61469026  0.84468074  0.57719106    -0.82300
C638        C  0.66056606  0.77450471  0.67405261     0.97100
O639        O  0.68500474  0.80594930  0.65812421    -0.71400
O640        O  0.68087853  0.79189454  0.60022950    -0.75000
Al641      Al  0.67659558  0.83278468  0.62384861     1.49000
C642        C  0.66354332  0.77862024  0.57523380     0.92400
O643        O  0.56505205  0.73006104  0.59989443    -0.81200
O644        O  0.56120857  0.81526770  0.65079094    -0.74700
Al645      Al  0.59133993  0.78819090  0.59063908     1.90100
O646        O  0.54852291  0.73460386  0.64613978    -0.73800
O647        O  0.63108632  0.83813633  0.68007361    -0.73700
O648        O  0.62117947  0.75952360  0.67275817    -0.79300
O649        O  0.67922823  0.87725600  0.64734293    -0.77500
O650        O  0.62038295  0.80316722  0.62468118    -1.13700
O651        O  0.68043572  0.86604953  0.58934308    -0.72900
C652        C  0.65363396  0.87028425  0.57412390     0.97900
C653        C  0.54304545  0.71313800  0.62278109     0.94300
Al654      Al  0.59292979  0.78819778  0.65943544     1.55600
O655        O  0.63126468  0.78072104  0.56832924    -0.77500
C656        C  0.66180904  0.87329306  0.67232074     0.98400
C657        C  0.53776588  0.80732408  0.62834410     0.93300
O658        O  0.54430475  0.79206596  0.60507121    -0.82800
O659        O  0.14558794  0.77313470  0.57716731    -0.82300
C660        C  0.21815193  0.88110980  0.67664688     0.97100
O661        O  0.18870713  0.87867404  0.66036733    -0.71400
O662        O  0.20197874  0.89011798  0.60270306    -0.75000
Al663      Al  0.15961803  0.84558635  0.62584765     1.49000
C664        C  0.21672646  0.88650253  0.57822959     0.92400
O665        O  0.25887672  0.82979420  0.60296310    -0.81200
O666        O  0.16500235  0.73972682  0.64890240    -0.74700
Al667      Al  0.20120435  0.80186762  0.59177771     1.90100
O668        O  0.24849827  0.80255974  0.64773501    -0.73800
O669        O  0.14755323  0.78906884  0.68057186    -0.73700
O670        O  0.22857325  0.85303809  0.67534453    -0.79300
O671        O  0.11305705  0.80578396  0.64890585    -0.77500
O672        O  0.18563069  0.81518237  0.62594971    -1.13700
O673        O  0.12571222  0.81811946  0.59138565    -0.72900
C674        C  0.12003014  0.78678845  0.57579391     0.97900
C675        C  0.27291218  0.82180965  0.62625399     0.94300
Al676      Al  0.19640280  0.79760140  0.66016610     1.55600
O677        O  0.21343386  0.85178985  0.57077787    -0.77500
C678        C  0.11449583  0.78922744  0.67313197     0.98400
C679        C  0.17201539  0.72419523  0.62596170     0.93300
O680        O  0.19223436  0.74785476  0.60435953    -0.82800
O681        O  0.13688667  0.36892310  0.67373669    -0.82300
C682        C  0.20820632  0.33511831  0.57233715     0.97100
O683        O  0.17937417  0.30795346  0.58889774    -0.71400
O684        O  0.19144687  0.30706247  0.64644381    -0.75000
Al685      Al  0.14997470  0.31132558  0.62332803     1.49000
C686        C  0.20611811  0.32437708  0.67119673     0.92400
O687        O  0.25074932  0.42385616  0.64792320    -0.81200
O688        O  0.15943471  0.42656777  0.60318814    -0.74700
Al689      Al  0.19291732  0.39515393  0.65903962     1.90100
O690        O  0.24150768  0.44303350  0.60345958    -0.73800
O691        O  0.13823370  0.35992093  0.57015618    -0.73700
O692        O  0.21819649  0.37348578  0.57341222    -0.79300
O693        O  0.10409280  0.30606953  0.60002535    -0.77500
O694        O  0.17688338  0.36784974  0.62420958    -1.13700
O695        O  0.11561707  0.30439830  0.65773291    -0.72900
C696        C  0.11075971  0.32972087  0.67439844     0.97900
C697        C  0.26512651  0.44726963  0.62526303     0.94300
Al698      Al  0.18824851  0.39794266  0.59052995     1.55600
O699        O  0.20343143  0.35589348  0.67919298    -0.77500
C700        C  0.10530504  0.32608969  0.57682774     0.98400
C701        C  0.16940087  0.44942617  0.62614259     0.93300
O702        O  0.18669454  0.44206160  0.64775844    -0.82800
O703        O  0.85821046  0.62409879  0.92464340    -0.82300
C704        C  0.78550655  0.66339135  0.82656784     0.97100
O705        O  0.81699162  0.68906300  0.84182807    -0.71400
O706        O  0.80397662  0.68769113  0.89934065    -0.75000
Al707      Al  0.84487577  0.68307617  0.87620881     1.49000
C708        C  0.78870846  0.66977377  0.92387591     0.92400
O709        O  0.74356774  0.57045930  0.90217946    -0.81200
O710        O  0.83017449  0.56729477  0.85246168    -0.74700
Al711      Al  0.80180183  0.59884611  0.91135364     1.90100
O712        O  0.74894425  0.55268736  0.85657010    -0.73800
O713        O  0.85069593  0.63575962  0.82118165    -0.73700
O714        O  0.77169313  0.62412470  0.82850673    -0.79300
O715        O  0.88941964  0.68589036  0.85281459    -0.77500
O716        O  0.81621462  0.62659531  0.87670981    -1.13100
O717        O  0.87879102  0.68905093  0.91048865    -0.72900
C718        C  0.88422316  0.66316703  0.92592708     0.97900
C719        C  0.72699701  0.54775619  0.87955828     0.94300
Al720      Al  0.80168201  0.59752888  0.84264811     1.55600
O721        O  0.79236306  0.63879790  0.93225339    -0.77500
C722        C  0.88534055  0.66753126  0.82823063     0.98400
C723        C  0.82378609  0.54526598  0.87564883     0.93300
O724        O  0.80769730  0.55209427  0.89837755    -0.82800
O725        O  0.84311906  0.21575755  0.82305128    -0.82300
C726        C  0.77280268  0.10901273  0.92408940     0.97100
O727        O  0.80369259  0.11338169  0.90854888    -0.71400
O728        O  0.79288645  0.10143318  0.85087441    -0.75000
Al729      Al  0.83286254  0.14731252  0.87425775     1.49000
C730        C  0.77586003  0.10302230  0.82693283     0.92400
O731        O  0.72986728  0.15839383  0.84987969    -0.81200
O732        O  0.81998891  0.25023552  0.89600720    -0.74700
Al733      Al  0.78774339  0.18669551  0.83876632     1.90100
O734        O  0.73871141  0.18467913  0.89464088    -0.73800
O735        O  0.84059883  0.20330476  0.92858165    -0.73700
O736        O  0.76113003  0.13616124  0.92263357    -0.79300
O737        O  0.87775739  0.18890286  0.89778223    -0.77500
O738        O  0.80419459  0.17532583  0.87341213    -1.13700
O739        O  0.86702767  0.17519888  0.83997081    -0.72900
C740        C  0.86988520  0.20357939  0.82234667     0.97900
C741        C  0.71518158  0.16677540  0.87261101     0.94300
Al742      Al  0.79136166  0.19202538  0.90741863     1.55600
O743        O  0.77618561  0.13625440  0.81922765    -0.77500
C744        C  0.87476731  0.20496571  0.92184284     0.98400
C745        C  0.81198702  0.26430194  0.87265456     0.93300
O746        O  0.79552675  0.24042456  0.85044862    -0.82800
O747        O  0.37457543  0.14904113  0.82662300    -0.82300
C748        C  0.33115707  0.21928810  0.92356037     0.97100
O749        O  0.30566737  0.18718346  0.90848296    -0.71400
O750        O  0.30748349  0.19789435  0.85028949    -0.75000
Al751      Al  0.31286613  0.15825596  0.87482194     1.49000
C752        C  0.32737861  0.21510141  0.82665529     0.92400
O753        O  0.42803150  0.26295593  0.85289107    -0.81200
O754        O  0.42534016  0.17161471  0.90154441    -0.74700
Al755      Al  0.39910783  0.20452589  0.84197908     1.90100
O756        O  0.44314565  0.25349189  0.89825359    -0.73800
O757        O  0.35669826  0.15307321  0.93189020    -0.73700
O758        O  0.37028598  0.23237609  0.92288255    -0.79300
O759        O  0.30991175  0.11384607  0.89890755    -0.77500
O760        O  0.36921340  0.18801344  0.87563998    -1.13700
O761        O  0.30907307  0.12393782  0.84110636    -0.72900
C762        C  0.33613104  0.12134855  0.82502699     0.97900
C763        C  0.45017032  0.27723420  0.87608133     0.94300
Al764      Al  0.39633473  0.20141718  0.91055758     1.55600
O765        O  0.36105088  0.21533182  0.82052655    -0.77500
C766        C  0.32651431  0.11782912  0.92412497     0.98400
C767        C  0.44820151  0.17861076  0.87874048     0.93300
O768        O  0.44356834  0.19658432  0.85616368    -0.82800
C769        C  0.48252046  0.16824292  0.87814129    -0.20300
C770        C  0.48515193  0.14013068  0.89855407     0.35900
C771        C  0.52016368  0.13393272  0.89727396    -0.26300
C772        C  0.55244428  0.15543992  0.87622489     0.02300
C773        C  0.54952040  0.18308474  0.85573650     0.27100
C774        C  0.51444506  0.18866377  0.85665208    -0.25400
N775        N  0.45265815  0.11821011  0.92047008    -0.82800
H776        H  0.52263184  0.11267310  0.91293805     0.12900
C777        C  0.59082028  0.15152644  0.87686309     0.02300
N778        N  0.58292423  0.20650130  0.83466355    -0.81400
H779        H  0.51298109  0.21051676  0.84101945     0.17800
C780        C  0.60374878  0.13998234  0.85076992    -0.26200
C781        C  0.64386941  0.14388239  0.84861441     0.35800
C782        C  0.67087137  0.15780864  0.87372605    -0.20300
C783        C  0.65632501  0.16637566  0.90047254    -0.25500
C784        C  0.61705450  0.16420662  0.90213423     0.27200
H785        H  0.58326964  0.13015250  0.83144323     0.12900
N786        N  0.65751423  0.13524189  0.82075137    -0.82800
H787        H  0.67642781  0.17669664  0.91998116     0.17800
N788        N  0.60452767  0.17657852  0.92898432    -0.81400
H789        H  0.63302550  0.12336267  0.80515693     0.33400
H790        H  0.68111617  0.16409004  0.81218333     0.37900
H791        H  0.62735692  0.18485585  0.94559510     0.33400
H792        H  0.60303990  0.20384531  0.92422013     0.30100
H793        H  0.57571253  0.22523569  0.82099717     0.33400
H794        H  0.60985690  0.22723127  0.84673285     0.30100
H795        H  0.42493547  0.09763036  0.90910532     0.37900
H796        H  0.45990651  0.09938120  0.93400506     0.33400
C797        C  0.48649917  0.32096274  0.87745069    -0.20300
C798        C  0.49014620  0.35389807  0.85892448     0.35900
C799        C  0.52699905  0.39376789  0.86017700    -0.26300
C800        C  0.56016562  0.40129570  0.87953416     0.02300
C801        C  0.55601110  0.36876030  0.89865164     0.27100
C802        C  0.51917782  0.32922544  0.89757757    -0.25400
N803        N  0.45649711  0.34697126  0.83912653    -0.82800
H804        H  0.53007461  0.41906451  0.84585636     0.12900
C805        C  0.60013951  0.44239116  0.87859742     0.02300
N806        N  0.58974555  0.37557780  0.91847306    -0.81400
H807        H  0.51674799  0.30419223  0.91189360     0.17800
C808        C  0.61664461  0.46503607  0.90511844    -0.26200
C809        C  0.65774593  0.49987634  0.90626511     0.35800
C810        C  0.68207339  0.51378236  0.87978657    -0.20300
C811        C  0.66401910  0.49284932  0.85284112    -0.25500
C812        C  0.62375668  0.45688857  0.85204948     0.27200
H813        H  0.59812272  0.45397261  0.92539353     0.12900
N814        N  0.67512605  0.51969389  0.93442011    -0.82800
H815        H  0.68208657  0.50341342  0.83235823     0.17800
N816        N  0.60752374  0.43408029  0.82461411    -0.81400
H817        H  0.65240982  0.50669506  0.95129426     0.33400
H818        H  0.69870037  0.51267811  0.94003687     0.37900
H819        H  0.62873132  0.44912593  0.80710312     0.33400
H820        H  0.60499653  0.40443077  0.82716644     0.30100
H821        H  0.58147845  0.34855228  0.93121814     0.33400
H822        H  0.61556078  0.38072812  0.90538339     0.30100
H823        H  0.43045880  0.34100598  0.85226808     0.37900
H824        H  0.46442495  0.37427692  0.82682057     0.33400
C825        C  0.82025133  0.30853867  0.87138014    -0.20300
C826        C  0.79645354  0.31992448  0.85248014     0.35900
C827        C  0.80428727  0.36173053  0.85255510    -0.26300
C828        C  0.83496903  0.39250113  0.87119073     0.02300
C829        C  0.85922597  0.38150477  0.88966419     0.27100
C830        C  0.85140796  0.33958775  0.88974844    -0.25400
N831        N  0.76341221  0.28881751  0.83398410    -0.82800
H832        H  0.78522480  0.37006548  0.83875332     0.12900
C833        C  0.83847939  0.43490725  0.87277671     0.02300
N834        N  0.89165681  0.41299194  0.90825757    -0.81400
H835        H  0.86985800  0.33117149  0.90413163     0.17800
C836        C  0.83048159  0.44846733  0.89996970    -0.26200
C837        C  0.82800749  0.48561807  0.90191859     0.35800
C838        C  0.83272601  0.50952655  0.87577535    -0.20300
C839        C  0.84302472  0.49698188  0.84883858    -0.25500
C840        C  0.84608509  0.46006533  0.84711872     0.27200
H841        H  0.82481178  0.42917175  0.91967848     0.12900
N842        N  0.81981830  0.49843078  0.93030035    -0.82800
H843        H  0.84741639  0.51525722  0.82877461     0.17800
N844        N  0.85609224  0.44752116  0.81930839    -0.81400
H845        H  0.81601970  0.47675800  0.94695638     0.33400
H846        H  0.84659366  0.52699343  0.93602944     0.37900
H847        H  0.86062258  0.46927461  0.80252442     0.33400
H848        H  0.88490890  0.44839013  0.82202201     0.30100
H849        H  0.90659421  0.39986261  0.92052800     0.33400
H850        H  0.91457824  0.43580063  0.89423534     0.30100
H851        H  0.73972208  0.26701325  0.84807485     0.37900
H852        H  0.74960528  0.30258378  0.82113926     0.33400
C853        C  0.91054736  0.22524924  0.94324694    -0.20300
C854        C  0.94517336  0.21804917  0.94267199     0.35900
C855        C  0.97525926  0.23438763  0.96574507    -0.26300
C856        C  0.97199765  0.25839974  0.98892542     0.02300
C857        C  0.93841213  0.26678499  0.98904598     0.27100
C858        C  0.90814858  0.25020964  0.96628333    -0.25400
N859        N  0.94929664  0.19346808  0.91925277    -0.82800
H860        H  0.00156910  0.22858593  0.46561191     0.12900
C861        C  0.00438551  0.27524986  0.51272293     0.02300
N862        N  0.93486987  0.29159567  0.01257642    -0.81400
H863        H  0.88209199  0.25638140  0.96686664     0.17800
C864        C  0.03080431  0.31904569  0.51524377    -0.26200
C865        C  0.06273278  0.33625423  0.53680036     0.35800
C866        C  0.06868608  0.30925584  0.55628934    -0.20300
C867        C  0.04107419  0.26539520  0.55448740    -0.25500
C868        C  0.00894977  0.24811868  0.53284556     0.27200
H869        H  0.02699501  0.34003108  0.00008175     0.12900
N870        N  0.08888804  0.38124676  0.53889250    -0.82800
H871        H  0.04532715  0.24446354  0.56939225     0.17800
N872        N  0.98112012  0.20319213  0.53103494    -0.81400
H873        H  0.06944655  0.39413849  0.54290126     0.33400
H874        H  0.10378715  0.39256724  0.51831873     0.37900
H875        H  0.98876480  0.18763734  0.54731844     0.33400
H876        H  0.95063244  0.19714329  0.53591688     0.30100
H877        H  0.90846246  0.29508752  0.00933785     0.33400
H878        H  0.92978351  0.27480327  0.03248048     0.30100
H879        H  0.95591214  0.21100216  0.89955911     0.37900
H880        H  0.97524808  0.18941432  0.92310646     0.33400
C881        C  0.90435194  0.22181246  0.79995057    -0.20300
C882        C  0.89774182  0.23317903  0.77112901     0.35900
C883        C  0.93123403  0.25053093  0.75052464    -0.26300
C884        C  0.97087318  0.25595623  0.75786050     0.02300
C885        C  0.97711540  0.24323360  0.78620343     0.27100
C886        C  0.94382553  0.22640090  0.80700572    -0.25400
N887        N  0.85684582  0.22621667  0.76264212    -0.82800
H888        H  0.92646871  0.25987973  0.72859355     0.12900
C889        C  0.00575935  0.27533900  0.73575065     0.02300
N890        N  0.01719351  0.24726379  0.79361753    -0.81400
H891        H  0.94875986  0.21701555  0.82887624     0.17800
C892        C  0.04157942  0.31426362  0.74232910    -0.26200
C893        C  0.07596334  0.33318944  0.72250398     0.35800
C894        C  0.07438679  0.31264112  0.69535440    -0.20300
C895        C  0.03801787  0.27401194  0.68861282    -0.25500
C896        C  0.00368327  0.25522292  0.70847393     0.27200
H897        H  0.04282351  0.32969899  0.76324670     0.12900
N898        N  0.11270789  0.37259739  0.73026590    -0.82800
H899        H  0.03645942  0.25822654  0.66780148     0.17800
N900        N  0.96694801  0.21553924  0.70125550    -0.81400
H901        H  0.10829541  0.38377734  0.75064283     0.33400
H902        H  0.13761870  0.36667585  0.73338086     0.37900
H903        H  0.97027468  0.20503922  0.68027643     0.33400
H904        H  0.96493778  0.19317888  0.71671982     0.30100
H905        H  0.01670086  0.23660292  0.81533011     0.33400
H906        H  0.02191925  0.22728318  0.77941180     0.30100
H907        H  0.83600819  0.19357053  0.76278726     0.37900
H908        H  0.85738988  0.23641358  0.74078206     0.33400
C909        C  0.31072705  0.23393311  0.80504965    -0.20300
C910        C  0.33757288  0.26466671  0.78409676     0.35900
C911        C  0.32017201  0.27853551  0.76201045    -0.26300
C912        C  0.27667270  0.26342533  0.76072226     0.02300
C913        C  0.24986892  0.23363221  0.78210743     0.27100
C914        C  0.26716852  0.21908953  0.80397615    -0.25400
N915        N  0.38248644  0.28194441  0.78536719    -0.82800
H916        H  0.34071539  0.30121410  0.74552864     0.12900
C917        C  0.25990645  0.27930617  0.73684295     0.02300
N918        N  0.20523437  0.21828757  0.78152944    -0.81400
H919        H  0.24643465  0.19550944  0.81991444     0.17800
C920        C  0.22770598  0.25039994  0.71802515    -0.26200
C921        C  0.21013178  0.26420887  0.69585619     0.35800
C922        C  0.22600029  0.30793085  0.69189485    -0.20300
C923        C  0.25909226  0.33683311  0.71009770    -0.25500
C924        C  0.27601154  0.32306480  0.73263255     0.27200
H925        H  0.21578765  0.21685897  0.72098238     0.12900
N926        N  0.17533969  0.23400276  0.67816774    -0.82800
H927        H  0.27119288  0.37042407  0.70713390     0.17800
N928        N  0.30882343  0.35332639  0.75167159    -0.81400
H929        H  0.16761951  0.20317557  0.68382894     0.33400
H930        H  0.14903536  0.23685241  0.68355976     0.37900
H931        H  0.31726435  0.38418201  0.74548764     0.33400
H932        H  0.29656348  0.34884638  0.77327687     0.30100
H933        H  0.18995417  0.19629620  0.79858902     0.33400
H934        H  0.20076385  0.24390529  0.78592215     0.30100
H935        H  0.39274003  0.29848861  0.80541543     0.37900
H936        H  0.39761605  0.30404175  0.76834756     0.33400
C937        C  0.31520243  0.24090793  0.94337106    -0.20300
C938        C  0.27596396  0.23877545  0.93851617     0.35900
C939        C  0.26132936  0.25752893  0.95924159    -0.26300
C940        C  0.28513867  0.27852426  0.98452935     0.02300
C941        C  0.32492614  0.28209863  0.98880306     0.27100
C942        C  0.33954002  0.26330083  0.96822868    -0.25400
N943        N  0.25112127  0.21765131  0.91267556    -0.82800
H944        H  0.23084206  0.25511359  0.95600055     0.12900
C945        C  0.26714661  0.29476126  0.50717973     0.02300
N946        N  0.35010501  0.30449604  0.51422280    -0.81400
H947        H  0.36976319  0.26537208  0.97204980     0.17800
C948        C  0.25801350  0.27664822  0.53574999    -0.26200
C949        C  0.23954547  0.28988732  0.55762607     0.35800
C950        C  0.22979250  0.32173563  0.55066331    -0.20300
C951        C  0.24002643  0.34066919  0.52230640    -0.25500
C952        C  0.25853037  0.32741084  0.50044691     0.27200
H953        H  0.26499918  0.25176983  0.54086142     0.12900
N954        N  0.23102054  0.27141315  0.58691652    -0.82800
H955        H  0.23275880  0.36530273  0.51700206     0.17800
N956        N  0.26848134  0.34678086  0.97144602    -0.81400
H957        H  0.24002252  0.24842005  0.58836174     0.33400
H958        H  0.24993377  0.29526403  0.60199434     0.37900
H959        H  0.25995364  0.37013436  0.97002908     0.33400
H960        H  0.30126039  0.36210404  0.96890177     0.30100
H961        H  0.37845306  0.30401504  0.51427758     0.33400
H962        H  0.35810487  0.33615944  0.51206872     0.30100
H963        H  0.26817824  0.23456292  0.89390195     0.37900
H964        H  0.22302225  0.21861186  0.91263925     0.33400
C965        C  0.23617535  0.92230302  0.55714468    -0.20300
C966        C  0.26880613  0.92754502  0.53769332     0.35900
C967        C  0.28345827  0.95901009  0.51571532    -0.26300
C968        C  0.26595597  0.98525161  0.51277982     0.02300
C969        C  0.23413373  0.98098987  0.53258106     0.27100
C970        C  0.21957801  0.94953894  0.55471516    -0.25400
N971        N  0.28746603  0.90128592  0.54042549    -0.82800
H972        H  0.30851583  0.96290190  0.00079144     0.12900
C973        C  0.28232959  0.01817044  0.98948295     0.02300
N974        N  0.21640471  0.00820974  0.52977928    -0.81400
H975        H  0.19434276  0.94542719  0.56949993     0.17800
C976        C  0.26093160  0.01055709  0.96229580    -0.26200
C977        C  0.27477659  0.04205479  0.94015477     0.35800
C978        C  0.31091804  0.08198677  0.94554797    -0.20300
C979        C  0.33281795  0.08863227  0.97266978    -0.25500
C980        C  0.31882135  0.05722215  0.99464626     0.27200
H981        H  0.23299427  0.98009972  0.95857011     0.12900
N982        N  0.25210137  0.03349845  0.91251441    -0.82800
H983        H  0.36086342  0.11872754  0.97704975     0.17800
N984        N  0.34143071  0.06476369  0.02225947    -0.81400
H985        H  0.22785033  0.00198073  0.91165241     0.33400
H986        H  0.23744082  0.05181443  0.91213472     0.37900
H987        H  0.36805421  0.09498822  0.02241748     0.33400
H988        H  0.32170933  0.06420328  0.53942380     0.30100
H989        H  0.19290888  0.00059338  0.54581800     0.33400
H990        H  0.24031515  0.03906157  0.53437491     0.30100
H991        H  0.28377565  0.88576442  0.52011964     0.37900
H992        H  0.31977347  0.92079759  0.54425616     0.33400
C993        C  0.32242855  0.08603142  0.80346992    -0.20300
C994        C  0.34071957  0.09260892  0.77472982     0.35900
C995        C  0.32522679  0.05888025  0.75435831    -0.26300
C996        C  0.29201876  0.01871597  0.76198437     0.02300
C997        C  0.27391215  0.01193361  0.79069399     0.27100
C998        C  0.28921975  0.04570295  0.81111503    -0.25400
N999        N  0.37353816  0.13390489  0.76574133    -0.82800
H1000       H  0.33892516  0.06395404  0.73225511     0.12900
C1001       C  0.27534879  0.98453005  0.73923416     0.02300
N1002       N  0.23955605  0.97099936  0.79876219    -0.81400
H1003       H  0.27503701  0.04061806  0.83305502     0.17800
C1004       C  0.27727181  0.94765596  0.74443277    -0.26200
C1005       C  0.25980022  0.91376927  0.72410259     0.35800
C1006       C  0.23985164  0.91690499  0.69791189    -0.20300
C1007       C  0.23922165  0.95447884  0.69240594    -0.25500
C1008       C  0.25683356  0.98829965  0.71270191     0.27200
H1009       H  0.29197671  0.94513852  0.76469688     0.12900
N1010       N  0.26146309  0.87600167  0.73041785    -0.82800
H1011       H  0.22452724  0.95736477  0.67226253     0.17800
N1012       N  0.25538559  0.02624719  0.70671917    -0.81400
H1013       H  0.27819831  0.87942135  0.75008123     0.33400
H1014       H  0.23056699  0.85166808  0.73427031     0.37900
H1015       H  0.24105881  0.02416120  0.68614755     0.33400
H1016       H  0.23619370  0.02873186  0.72294045     0.30100
H1017       H  0.22988819  0.97121143  0.82067272     0.33400
H1018       H  0.21395688  0.96469010  0.78505938     0.30100
H1019       H  0.40091244  0.14028423  0.77725404     0.37900
H1020       H  0.38056300  0.13411068  0.74311858     0.33400
C1021       C  0.07805204  0.77003993  0.69381921    -0.20300
C1022       C  0.04732620  0.78278382  0.69503229     0.35900
C1023       C  0.01652815  0.76652254  0.71767402    -0.26300
C1024       C  0.01563119  0.73755417  0.73860905     0.02300
C1025       C  0.04560532  0.72423617  0.73705001     0.27100
C1026       C  0.07630018  0.74040993  0.71464093    -0.25400
N1027       N  0.04816974  0.81299184  0.67407289    -0.82800
H1028       H  0.99300301  0.77624857  0.71898237     0.12900
C1029       C  0.98263830  0.72030468  0.76183787     0.02300
N1030       N  0.04502455  0.69472954  0.75856554    -0.81400
H1031       H  0.09951264  0.73024410  0.71376930     0.17800
C1032       C  0.95305608  0.67706414  0.76140170    -0.26200
C1033       C  0.92212628  0.65867820  0.78360581     0.35800
C1034       C  0.92040850  0.68444330  0.80650763    -0.20300
C1035       C  0.95066212  0.72770487  0.80717965    -0.25500
C1036       C  0.98187083  0.74591362  0.78501930     0.27200
H1037       H  0.95437836  0.65756903  0.74368130     0.12900
N1038       N  0.89265334  0.61397486  0.78299156    -0.82800
H1039       H  0.94938662  0.74756328  0.82462980     0.17800
N1040       N  0.01273402  0.79018478  0.78589583    -0.81400
H1041       H  0.89805218  0.59987477  0.76449655     0.33400
H1042       H  0.89821590  0.60066014  0.80186550     0.37900
H1043       H  0.00759525  0.80460533  0.80431308     0.33400
H1044       H  0.04228499  0.79281291  0.78898166     0.30100
H1045       H  0.06910658  0.68793274  0.75421153     0.33400
H1046       H  0.05148346  0.70938824  0.77944000     0.30100
H1047       H  0.04015436  0.79832634  0.65320451     0.37900
H1048       H  0.02489188  0.82063725  0.67926217     0.33400
C1049       C  0.08405978  0.76648422  0.55473562    -0.20300
C1050       C  0.04731031  0.76989040  0.55781501     0.35900
C1051       C  0.01464235  0.75004266  0.53683216    -0.26300
C1052       C  0.01830771  0.72775128  0.51271320     0.02300
C1053       C  0.05449273  0.72394802  0.50965088     0.27100
C1054       C  0.08690462  0.74312251  0.53076219    -0.25400
N1055       N  0.04283264  0.79281735  0.58227495    -0.82800
H1056       H  0.98651302  0.75268028  0.53887763     0.12900
C1057       C  0.98464394  0.70994531  0.99007752     0.02300
N1058       N  0.05834943  0.70116126  0.48484006    -0.81400
H1059       H  0.11489530  0.74037765  0.52812351     0.17800
C1060       C  0.98951919  0.73302363  0.96400235    -0.26200
C1061       C  0.95774503  0.71788716  0.94221628     0.35800
C1062       C  0.92024582  0.67890175  0.94685284    -0.20300
C1063       C  0.91610898  0.65534924  0.97273789    -0.25500
C1064       C  0.94797104  0.67060453  0.99446210     0.27200
H1065       H  0.01817052  0.76308728  0.96078690     0.12900
N1066       N  0.96352174  0.74187874  0.91545283    -0.82800
H1067       H  0.88744518  0.62547010  0.97643232     0.17800
N1068       N  0.94295115  0.64685889  0.52123948    -0.81400
H1069       H  0.99264132  0.76990855  0.91572082     0.33400
H1070       H  0.96447013  0.72401982  0.89755475     0.37900
H1071       H  0.91386432  0.61879323  0.52123015     0.33400
H1072       H  0.96616954  0.63812325  0.52113146     0.30100
H1073       H  0.08720914  0.70174368  0.48560300     0.33400
H1074       H  0.03486707  0.66957754  0.98697805     0.30100
H1075       H  0.06333670  0.82498394  0.57835036     0.37900
H1076       H  0.01249289  0.78889168  0.58260596     0.33400
C1077       C  0.16279483  0.48629618  0.62733496    -0.20300
C1078       C  0.19053035  0.52343687  0.64338643     0.35900
C1079       C  0.18460466  0.55828826  0.64261831    -0.26300
C1080       C  0.15138449  0.55741540  0.62654886     0.02300
C1081       C  0.12345525  0.52065359  0.61059889     0.27100
C1082       C  0.12966664  0.48553339  0.61094189    -0.25400
N1083       N  0.22599706  0.52760354  0.65982326    -0.82800
H1084       H  0.20666909  0.58675733  0.65442826     0.12900
C1085       C  0.14816297  0.59636068  0.62595925     0.02300
N1086       N  0.08898780  0.51915850  0.59423055    -0.81400
H1087       H  0.10843502  0.45738198  0.59851200     0.17800
C1088       C  0.15241965  0.61708442  0.59878285    -0.26200
C1089       C  0.15739543  0.65785188  0.59797087     0.35800
C1090       C  0.15908886  0.67861831  0.62505555    -0.20300
C1091       C  0.15153097  0.65637550  0.65201558    -0.25500
C1092       C  0.14593650  0.61542973  0.65271307     0.27200
H1093       H  0.15369545  0.60215103  0.57823505     0.12900
N1094       N  0.16159557  0.67845054  0.56981507    -0.82800
H1095       H  0.15185713  0.67162924  0.67280809     0.17800
N1096       N  0.13938097  0.59354180  0.68058508    -0.81400
H1097       H  0.16006165  0.65900481  0.55217879     0.33400
H1098       H  0.13561845  0.68289787  0.56750690     0.37900
H1099       H  0.13888405  0.61197995  0.69824216     0.33400
H1100       H  0.10947995  0.56651882  0.67983234     0.30100
H1101       H  0.07144647  0.48990007  0.58367189     0.33400
H1102       H  0.06881503  0.52158337  0.60962901     0.30100
H1103       H  0.24495594  0.52138531  0.64563386     0.37900
H1104       H  0.21513426  0.50597642  0.67741162     0.33400
C1105       C  0.67771888  0.90898933  0.69374415    -0.20300
C1106       C  0.71647136  0.94707852  0.68972888     0.35900
C1107       C  0.73178906  0.97725979  0.71273743    -0.26300
C1108       C  0.70892428  0.97053079  0.73923247     0.02300
C1109       C  0.66978986  0.93340699  0.74289678     0.27100
C1110       C  0.65452112  0.90319745  0.72012705    -0.25400
N1111       N  0.74049723  0.95485404  0.66273506    -0.82800
H1112       H  0.76157585  0.00635231  0.70998761     0.12900
C1113       C  0.72568092  0.00310544  0.76279166     0.02300
N1114       N  0.64606827  0.92628546  0.76998437    -0.81400
H1115       H  0.62459475  0.87446311  0.72342137     0.17800
C1116       C  0.70341831  0.02391956  0.76997659    -0.26200
C1117       C  0.71844358  0.05555233  0.79181940     0.35800
C1118       C  0.75645362  0.06640581  0.80675648    -0.20300
C1119       C  0.77814178  0.04473965  0.80017827    -0.25500
C1120       C  0.76318415  0.01321984  0.77812163     0.27200
H1121       H  0.67447656  0.01574105  0.75819170     0.12900
N1122       N  0.69540999  0.07685581  0.79884342    -0.82800
H1123       H  0.80751049  0.05345436  0.81153481     0.17800
N1124       N  0.78599323  0.99172753  0.77099139    -0.81400
H1125       H  0.66823145  0.06526955  0.78575321     0.33400
H1126       H  0.68528964  0.06969191  0.82097381     0.37900
H1127       H  0.81312782  0.00316643  0.78411079     0.33400
H1128       H  0.76676406  0.95987528  0.77659883     0.30100
H1129       H  0.61773227  0.89747900  0.76909417     0.33400
H1130       H  0.66371256  0.92375364  0.78735901     0.30100
H1131       H  0.72328238  0.95846612  0.64552577     0.37900
H1132       H  0.76896334  0.98347047  0.66407992     0.33400
C1133       C  0.75089973  0.07201695  0.94464036    -0.20300
C1134       C  0.72681265  0.07215737  0.96942839     0.35900
C1135       C  0.71067880  0.03830901  0.98981485    -0.26300
C1136       C  0.71666160  0.00366996  0.98557619     0.02300
C1137       C  0.73868381  0.00225854  0.96023590     0.27100
C1138       C  0.75583291  0.03652296  0.94016120    -0.25400
N1139       N  0.71964712  0.10698270  0.97441474    -0.82800
H1140       H  0.69324448  0.03884905  0.00920424     0.12900
C1141       C  0.70049953  0.96962078  0.50835417     0.02300
N1142       N  0.74398522  0.96628190  0.95523927    -0.81400
H1143       H  0.77351905  0.03564148  0.92104952     0.17800
C1144       C  0.66437348  0.93071026  0.50235412    -0.26200
C1145       C  0.64820943  0.89791069  0.52359983     0.35800
C1146       C  0.66843956  0.90450493  0.55157400    -0.20300
C1147       C  0.70484118  0.94342782  0.55735858    -0.25500
C1148       C  0.72106250  0.97604810  0.53601955     0.27200
H1149       H  0.64938106  0.92569973  0.98077070     0.12900
N1150       N  0.61210358  0.85764289  0.51653141    -0.82800
H1151       H  0.72069192  0.94836798  0.57861360     0.17800
N1152       N  0.75846298  0.01566936  0.54221205    -0.81400
H1153       H  0.60153467  0.85784354  0.99493407     0.33400
H1154       H  0.62207069  0.83531852  0.51597718     0.37900
H1155       H  0.76965388  0.01546755  0.56361502     0.33400
H1156       H  0.78187294  0.01883886  0.52730122     0.30100
H1157       H  0.76064585  0.96994750  0.93546528     0.33400
H1158       H  0.76330102  0.96584660  0.47306055     0.30100
H1159       H  0.69910683  0.10585168  0.95777539     0.37900
H1160       H  0.70391153  0.10333784  0.99462897     0.33400
C1161       C  0.76693325  0.68535764  0.94350046    -0.20300
C1162       C  0.73375910  0.65740809  0.96246472     0.35900
C1163       C  0.71631807  0.67362987  0.98276692    -0.26300
C1164       C  0.73076957  0.71699432  0.98408588     0.02300
C1165       C  0.76219676  0.74479049  0.96414653     0.27100
C1166       C  0.78017255  0.72869153  0.94402310    -0.25400
N1167       N  0.71749188  0.61260984  0.96072022    -0.82800
H1168       H  0.69163997  0.65245193  0.49791708     0.12900
C1169       C  0.71337850  0.73275292  0.50719737     0.02300
N1170       N  0.77583008  0.78915576  0.96466064    -0.81400
H1171       H  0.80518960  0.75010059  0.92920677     0.17800
C1172       C  0.73896482  0.75557442  0.53127737    -0.26200
C1173       C  0.72343549  0.77027394  0.55422860     0.35800
C1174       C  0.68119054  0.76160523  0.55298743    -0.20300
C1175       C  0.65555867  0.73810410  0.52887744    -0.25500
C1176       C  0.67127574  0.72368864  0.50595706     0.27200
H1177       H  0.77124984  0.76197707  0.53206678     0.12900
N1178       N  0.75065167  0.79441542  0.57836832    -0.82800
H1179       H  0.62312317  0.73116874  0.52772993     0.17800
N1180       N  0.64487792  0.70016481  0.98131622    -0.81400
H1181       H  0.78014417  0.79656999  0.57632533     0.33400
H1182       H  0.75598220  0.82525759  0.57653164     0.37900
H1183       H  0.61459555  0.69598389  0.98382860     0.33400
H1184       H  0.65763510  0.71827530  0.96204092     0.30100
H1185       H  0.79928085  0.80531727  0.94864429     0.33400
H1186       H  0.75007274  0.79251287  0.95852580     0.30100
H1187       H  0.70370480  0.60290533  0.93968948     0.37900
H1188       H  0.69337270  0.59656639  0.97631584     0.33400
C1189       C  0.67825048  0.75628221  0.69553364    -0.20300
C1190       C  0.71716150  0.75779701  0.69040613     0.35900
C1191       C  0.73351162  0.74211628  0.71225715    -0.26300
C1192       C  0.71188939  0.72500916  0.73910518     0.02300
C1193       C  0.67287567  0.72296866  0.74411345     0.27100
C1194       C  0.65641036  0.73848059  0.72229031    -0.25400
N1195       N  0.73975241  0.77486369  0.66298646    -0.82800
H1196       H  0.76335376  0.74332162  0.70842292     0.12900
C1197       C  0.73019534  0.70885210  0.76168168     0.02300
N1198       N  0.65018958  0.70515309  0.77138481    -0.81400
H1199       H  0.62667341  0.73735105  0.72645362     0.17800
C1200       C  0.74512729  0.73034049  0.78882113    -0.26200
C1201       C  0.76337322  0.71636542  0.81046553     0.35800
C1202       C  0.76591501  0.67948368  0.80501852    -0.20300
C1203       C  0.75010517  0.65763876  0.77803673    -0.25500
C1204       C  0.73251668  0.67204662  0.75629866     0.27200
H1205       H  0.74299410  0.75846930  0.79292523     0.12900
N1206       N  0.77809830  0.73883011  0.83817247    -0.82800
H1207       H  0.75208597  0.62948278  0.77367253     0.17800
N1208       N  0.71688547  0.64942120  0.72875560    -0.81400
H1209       H  0.77053730  0.76287744  0.83958233     0.33400
H1210       H  0.81103712  0.75399452  0.83801616     0.37900
H1211       H  0.72115732  0.62316664  0.72812319     0.33400
H1212       H  0.68433051  0.63773475  0.72817478     0.30100
H1213       H  0.62215443  0.70622692  0.77176392     0.33400
H1214       H  0.64155235  0.67319349  0.77175311     0.30100
H1215       H  0.72116585  0.75524980  0.64566930     0.37900
H1216       H  0.76783487  0.77387669  0.66280650     0.33400
C1217       C  0.31752030  0.83235460  0.62789814    -0.20300
C1218       C  0.33654331  0.83260395  0.65543297     0.35900
C1219       C  0.37571438  0.83427280  0.65547443    -0.26300
C1220       C  0.39667686  0.83693089  0.62872216     0.02300
C1221       C  0.37978165  0.84106051  0.60151695     0.27100
C1222       C  0.34026152  0.83860754  0.60134939    -0.25400
N1223       N  0.31568121  0.83019005  0.68317559    -0.82800
H1224       H  0.38911167  0.83167964  0.67636008     0.12900
C1225       C  0.43359488  0.83055208  0.62913294     0.02300
N1226       N  0.40228187  0.84626765  0.57410459    -0.81400
H1227       H  0.32635611  0.83952509  0.58024564     0.17800
C1228       C  0.43082503  0.79608724  0.61343359    -0.26200
C1229       C  0.46419937  0.78777393  0.61343272     0.35800
C1230       C  0.50151088  0.81460845  0.62919378    -0.20300
C1231       C  0.50388999  0.84839348  0.64575870    -0.25500
C1232       C  0.47020440  0.85672861  0.64581456     0.27200
H1233       H  0.40220331  0.77504867  0.60140431     0.12900
N1234       N  0.45952567  0.75121139  0.59812377    -0.82800
H1235       H  0.53234073  0.86875379  0.65816226     0.17800
N1236       N  0.47309103  0.89171924  0.66245413    -0.81400
H1237       H  0.45322430  0.75359182  0.57570361     0.33400
H1238       H  0.43343352  0.72449006  0.60709980     0.37900
H1239       H  0.50201161  0.90773316  0.67357055     0.33400
H1240       H  0.47251739  0.91306960  0.64719151     0.30100
H1241       H  0.38542992  0.84848231  0.55604798     0.33400
H1242       H  0.43051713  0.87512709  0.57529566     0.30100
H1243       H  0.31360242  0.85765235  0.68502725     0.37900
H1244       H  0.33376304  0.83026133  0.70123430     0.33400
C1245       C  0.30910268  0.48213585  0.62463298    -0.20300
C1246       C  0.34259589  0.47849776  0.63701338     0.35900
C1247       C  0.38369502  0.51360760  0.63619366    -0.26300
C1248       C  0.39139358  0.55207875  0.62370224     0.02300
C1249       C  0.35765328  0.55579070  0.61194541     0.27100
C1250       C  0.31709196  0.52049654  0.61188506    -0.25400
N1251       N  0.33483455  0.43926180  0.65002311    -0.82800
H1252       H  0.40977939  0.51108364  0.64529853     0.12900
C1253       C  0.43450135  0.58907209  0.62350718     0.02300
N1254       N  0.36464862  0.59572580  0.60073042    -0.81400
H1255       H  0.29122323  0.52338282  0.60273780     0.17800
C1256       C  0.45221763  0.60853522  0.59619689    -0.26200
C1257       C  0.48870971  0.64844538  0.59511112     0.35800
C1258       C  0.50867012  0.66857988  0.62207720    -0.20300
C1259       C  0.49270856  0.64729252  0.64926278    -0.25500
C1260       C  0.45554570  0.60787660  0.65028682     0.27200
H1261       H  0.43589554  0.59360002  0.57570520     0.12900
N1262       N  0.50389326  0.66933128  0.56687644    -0.82800
H1263       H  0.50820504  0.66234052  0.66994570     0.17800
N1264       N  0.43812378  0.58782770  0.67842916    -0.81400
H1265       H  0.48638213  0.64945036  0.54933540     0.33400
H1266       H  0.49857698  0.69494078  0.56630822     0.37900
H1267       H  0.45767107  0.60573763  0.69598137     0.33400
H1268       H  0.40946250  0.58722925  0.68134163     0.30100
H1269       H  0.33650740  0.59305189  0.59287835     0.33400
H1270       H  0.37437604  0.61687985  0.61862803     0.30100
H1271       H  0.32440613  0.41666487  0.63303485     0.37900
H1272       H  0.36285201  0.44201143  0.65821767     0.33400
loop_ 
_geom_bond_atom_site_label_1 
_geom_bond_atom_site_label_2 
_geom_bond_distance 
_geom_bond_site_symmetry_2 
_ccdc_geom_bond_type 
O1           C16   1.262       .  A
O1           Al9   1.894       .  S
C2           O12   1.261       .  A
C2            O3   1.265       .  A
C2          C553   1.490       .  S
O3           Al5   1.929       .  S
O4            C6   1.261       .  A
O4           Al5   1.900       .  S
Al5          O13   1.897       .  S
Al5          O15   1.928       .  S
Al5          O14   1.783       .  S
C6           O19   1.260       .  A
C6          C538   1.482       .  S
O7           C17   1.259       .  A
O7           Al9   1.887       .  S
O8           C21   1.260       .  A
O8          Al18   1.902       .  S
Al9          O22   1.908       .  S
Al9          O19   1.898       .  S
Al9          O14   1.784       .  S
O10          C17   1.263       .  A
O10         Al18   1.911       .  S
O11          C20   1.261       .  A
O11         Al18   1.895       .  S
O12         Al18   1.898       .  S
O13          C20   1.260       .  A
O14         Al18   1.785       .  S
O15          C16   1.266       .  A
C16         C510   1.483       .  S
C17         C622   1.478       .  S
C20         C469   1.485       .  S
C21          O22   1.261       .  A
C21         C594   1.477       .  S
O23          C38   1.261       .  A
O23         Al31   1.882       .  S
C24          O34   1.260       .  A
C24          O25   1.268       .  A
C24         C370   1.488       .  S
O25         Al27   1.926       .  S
O26          C28   1.258       .  A
O26         Al27   1.898       .  S
Al27         O35   1.899       .  S
Al27         O37   1.923       .  S
Al27         O36   1.786       .  S
C28          O41   1.257       .  A
C28         C329   1.476       .  S
O29          C39   1.261       .  A
O29         Al31   1.896       .  S
O30          C43   1.261       .  A
O30         Al40   1.902       .  S
Al31         O44   1.915       .  S
Al31         O41   1.896       .  S
Al31         O36   1.785       .  S
O32          C39   1.261       .  A
O32         Al40   1.904       .  S
O33          C42   1.257       .  A
O33         Al40   1.889       .  S
O34         Al40   1.889       .  S
O35          C42   1.257       .  A
O36         Al40   1.782       .  S
O37          C38   1.266       .  A
C38         C413   1.484       .  S
C39         C581   1.479       .  S
C42         C385   1.481       .  S
C43          O44   1.262       .  A
C43         C454   1.486       .  S
O45          C60   1.264       .  A
O45         Al53   1.894       .  S
C46          O56   1.260       .  A
C46          O47   1.265       .  A
C46         C314   1.480       .  S
O47         Al49   1.920       .  S
O48          C50   1.258       .  A
O48         Al49   1.908       .  S
Al49         O57   1.905       .  S
Al49         O59   1.924       .  S
Al49         O58   1.789       .  S
C50          O63   1.255       .  A
C50         C286   1.479       .  S
O51          C61   1.261       .  A
O51         Al53   1.899       .  S
O52          C65   1.260       .  A
O52         Al62   1.903       .  S
Al53         O66   1.905       .  S
Al53         O63   1.889       .  S
Al53         O58   1.788       .  S
O54          C61   1.263       .  A
O54         Al62   1.908       .  S
O55          C64   1.257       .  A
O55         Al62   1.891       .  S
O56         Al62   1.887       .  S
O57          C64   1.260       .  A
O58         Al62   1.790       .  S
O59          C60   1.268       .  A
C60         C258   1.487       .  S
C61         C609   1.471       .  S
C64         C230   1.484       .  S
C65          O66   1.258       .  A
C65         C441   1.482       .  S
O67          C82   1.260       .  A
O67         Al75   1.888       .  S
C68          O78   1.263       .  A
C68          O69   1.264       .  A
C68         C566   1.488       .  S
O69         Al71   1.922       .  S
O70          C72   1.259       .  A
O70         Al71   1.895       .  S
Al71         O79   1.896       .  S
Al71         O81   1.920       .  S
Al71         O80   1.787       .  S
C72          O85   1.260       .  A
C72         C525   1.478       .  S
O73          C83   1.259       .  A
O73         Al75   1.891       .  S
O74          C87   1.263       .  A
O74         Al84   1.910       .  S
Al75         O88   1.915       .  S
Al75         O85   1.905       .  S
Al75         O80   1.784       .  S
O76          C83   1.262       .  A
O76         Al84   1.907       .  S
O77          C86   1.259       .  A
O77         Al84   1.894       .  S
O78         Al84   1.901       .  S
O79          C86   1.260       .  A
O80         Al84   1.784       .  S
O81          C82   1.265       .  A
C82         C426   1.481       .  S
C83         C174   1.484       .  S
C86         C398   1.477       .  S
C87          O88   1.262       .  A
C87         C202   1.495       .  S
O89         C104   1.261       .  A
O89         Al97   1.891       .  S
C90         O100   1.261       .  A
C90          O91   1.267       .  A
C90         C497   1.495       .  S
O91         Al93   1.927       .  S
O92          C94   1.258       .  A
O92         Al93   1.898       .  S
Al93        O101   1.905       .  S
Al93        O103   1.920       .  S
Al93        O102   1.794       .  S
C94         O107   1.256       .  A
C94         C482   1.471       .  S
O95         C105   1.259       .  A
O95         Al97   1.900       .  S
O96         C109   1.264       .  A
O96        Al106   1.911       .  S
Al97        O110   1.909       .  S
Al97        O107   1.887       .  S
Al97        O102   1.789       .  S
O98         C105   1.259       .  A
O98        Al106   1.896       .  S
O99         C108   1.257       .  A
O99        Al106   1.891       .  S
O100       Al106   1.896       .  S
O101        C108   1.259       .  A
O102       Al106   1.790       .  S
O103        C104   1.265       .  A
C104        C245   1.483       .  S
C105        C146   1.485       .  S
C108        C217   1.489       .  S
C109        O110   1.262       .  A
C109        C189   1.488       .  S
O111        C126   1.259       .  A
O111       Al119   1.889       .  S
C112        O122   1.263       .  A
C112        O113   1.269       .  A
C112        C301   1.487       .  S
O113       Al115   1.934       .  S
O114        C116   1.261       .  A
O114       Al115   1.905       .  S
Al115       O123   1.906       .  S
Al115       O125   1.924       .  S
Al115       O124   1.787       .  S
C116        O129   1.257       .  A
C116        C273   1.484       .  S
O117        C127   1.261       .  A
O117       Al119   1.912       .  S
O118        C131   1.263       .  A
O118       Al128   1.904       .  S
Al119       O132   1.899       .  S
Al119       O129   1.889       .  S
Al119       O124   1.782       .  S
O120        C127   1.258       .  A
O120       Al128   1.897       .  S
O121        C130   1.256       .  A
O121       Al128   1.891       .  S
O122       Al128   1.888       .  S
O123        C130   1.258       .  A
O124       Al128   1.788       .  S
O125        C126   1.265       .  A
C126        C357   1.485       .  S
C127        C161   1.483       .  S
C130        C342   1.488       .  S
C131        O132   1.263       .  A
C131        C133   1.481       .  S
C133        C134   1.414       .  A
C133        C138   1.406       .  A
C134        C135   1.408       .  A
C134        N139   1.438       .  S
C135        C136   1.405       .  A
C135        H140   1.084       .  S
C136        C141   1.480       .  S
C136        C137   1.408       .  A
C137        C138   1.396       .  A
C137        N142   1.439       .  S
C138        H143   1.083       .  S
N139        H159   1.046       .  S
N139        H160   1.046       .  S
C141        C144   1.403       .  A
C141        C148   1.407       .  A
N142        H157   1.046       .  S
N142        H158   1.046       .  S
C144        C145   1.405       .  A
C144        H149   1.084       .  S
C145        C146   1.416       .  A
C145        N150   1.437       .  S
C146        C147   1.409       .  A
C147        C148   1.400       .  A
C147        H151   1.083       .  S
C148        N152   1.439       .  S
N150        H153   1.046       .  S
N150        H154   1.046       .  S
N152        H155   1.046       .  S
N152        H156   1.046       .  S
C161        C162   1.412       .  A
C161        C166   1.406       .  A
C162        C163   1.407       .  A
C162        N167   1.435       .  S
C163        C164   1.404       .  A
C163        H168   1.084       .  S
C164        C169   1.483       .  S
C164        C165   1.410       .  A
C165        C166   1.400       .  A
C165        N170   1.439       .  S
C166        H171   1.084       .  S
N167        H187   1.046       .  S
N167        H188   1.046       .  S
C169        C172   1.402       .  A
C169        C176   1.409       .  A
N170        H185   1.046       .  S
N170        H186   1.045       .  S
C172        C173   1.404       .  A
C172        H177   1.084       .  S
C173        C174   1.417       .  A
C173        N178   1.437       .  S
C174        C175   1.407       .  A
C175        C176   1.401       .  A
C175        H179   1.083       .  S
C176        N180   1.438       .  S
N178        H181   1.046       .  S
N178        H182   1.046       .  S
N180        H183   1.046       .  S
N180        H184   1.046       .  S
C189        C190   1.418       .  A
C189        C194   1.405       .  A
C190        C191   1.405       .  A
C190        N195   1.439       .  S
C191        C192   1.401       .  A
C191        H196   1.084       .  S
C192        C197   1.490       .  S
C192        C193   1.411       .  A
C193        C194   1.409       .  A
C193        N198   1.437       .  S
C194        H199   1.083       .  S
N195        H215   1.046       .  S
N195        H216   1.046       .  S
C197        C200   1.401       .  A
C197        C204   1.411       .  A
N198        H213   1.046       .  S
N198        H214   1.046       .  S
C200        C201   1.406       .  A
C200        H205   1.084       .  S
C201        C202   1.420       .  A
C201        N206   1.438       .  S
C202        C203   1.408       .  A
C203        C204   1.409       .  A
C203        H207   1.083       .  S
C204        N208   1.437       .  S
N206        H209   1.046       .  S
N206        H210   1.046       .  S
N208        H211   1.046       .  S
N208        H212   1.046       .  S
C217        C218   1.416       .  A
C217        C222   1.409       .  A
C218        C219   1.409       .  A
C218        N223   1.438       .  S
C219        C220   1.403       .  A
C219        H860   1.084   1_655  S
C220        C861   1.483   1_655  S
C220        C221   1.406       .  A
C221        C222   1.403       .  A
C221        N226   1.438       .  S
C222        H227   1.083       .  S
N223        H243   1.046       .  S
N223        H244   1.046       .  S
H224        C855   1.084   1_455  S
C225        C856   1.483   1_454  S
C225        C228   1.400       .  A
C225        C232   1.410       .  A
N226        H241   1.046       .  S
N226        H242   1.046       .  S
C228        C229   1.401       .  A
C228        H869   1.084       .  S
C229        C230   1.413       .  A
C229        N234   1.433       .  S
C230        C231   1.406       .  A
C231        C232   1.408       .  A
C231        H235   1.083       .  S
C232        N236   1.437   1_455  S
H233        C864   1.084       .  S
N234        H237   1.046       .  S
N234        H238   1.046       .  S
N236        H239   1.046       .  S
N236        H240   1.046       .  S
C245        C246   1.415       .  A
C245        C250   1.404       .  A
C246        C247   1.407       .  A
C246        N251   1.438       .  S
C247        C248   1.401       .  A
C247        H252   1.084       .  S
C248        C253   1.486   1_655  S
C248        C249   1.411       .  A
C249        C250   1.407       .  A
C249        N254   1.438   1_655  S
C250        H255   1.084       .  S
N251        H271   1.046       .  S
N251        H272   1.045       .  S
C253        C256   1.402       .  A
C253        C260   1.410       .  A
N254        H269   1.046       .  S
N254        H270   1.046       .  S
C256        C257   1.407       .  A
C256        H261   1.084       .  S
C257        C258   1.416       .  A
C257        N262   1.438       .  S
C258        C259   1.406       .  A
C259        C260   1.407       .  A
C259        H263   1.084       .  S
C260        N264   1.438   1_455  S
N262        H265   1.046       .  S
N262        H266   1.046       .  S
N264        H267   1.046       .  S
N264        H268   1.045       .  S
C273        C274   1.416       .  A
C273        C278   1.404       .  A
C274        C275   1.402       .  A
C274        N279   1.437       .  S
C275        C276   1.401       .  A
C275        H280   1.084       .  S
C276        C281   1.489       .  S
C276        C277   1.413       .  A
C277        C278   1.408       .  A
C277        N282   1.437       .  S
C278        H283   1.084       .  S
N279        H299   1.044       .  S
N279        H300   1.045       .  S
C281        C284   1.405       .  A
C281        C288   1.412       .  A
N282        H297   1.046       .  S
N282        H298   1.045       .  S
C284        C285   1.407       .  A
C284        H289   1.083       .  S
C285        C286   1.411       .  A
C285        N290   1.438       .  S
C286        C287   1.404       .  A
C287        C288   1.403       .  A
C287        H291   1.084       .  S
C288        N292   1.438       .  S
N290        H293   1.046       .  S
N290        H294   1.046       .  S
N292        H295   1.046       .  S
N292        H296   1.045       .  S
C301        C302   1.415       .  A
C301        C306   1.407       .  A
C302        C303   1.409       .  A
C302        N307   1.438       .  S
C303        C304   1.403       .  A
C303        H308   1.084       .  S
C304        C945   1.485       .  S
C304        C305   1.408       .  A
C305        C306   1.405       .  A
C305        N946   1.438       .  S
C306        H311   1.083       .  S
N307        H327   1.046       .  S
N307        H328   1.046       .  S
C309        C940   1.485   1_554  S
C309        C312   1.403       .  A
C309        C316   1.409       .  A
N310        C941   1.438   1_554  S
N310        H325   1.046       .  S
N310        H326   1.046       .  S
C312        C313   1.406       .  A
C312        H317   1.084       .  S
C313        C314   1.411       .  A
C313        N318   1.438       .  S
C314        C315   1.406       .  A
C315        C316   1.407       .  A
C315        H319   1.084       .  S
C316        N956   1.438   1_554  S
N318        H321   1.045       .  S
N318        H322   1.046       .  S
N320        C952   1.438       .  S
N320        H323   1.046       .  S
N320        H324   1.046       .  S
C329        C330   1.411       .  A
C329        C334   1.404       .  A
C330        C331   1.401       .  A
C330        N335   1.433       .  S
C331        C332   1.399       .  A
C331        H972   1.084       .  S
C332        C973   1.474   1_564  S
C332        C333   1.409       .  A
C333        C334   1.406       .  A
C333        N338   1.438   1_565  S
C334        H339   1.084       .  S
N335        H355   1.045       .  S
N335        H356   1.046       .  S
H336        C967   1.084       .  S
C337        C968   1.474   1_545  S
C337        C340   1.401       .  A
C337        C344   1.403       .  A
N338        H353   1.046       .  S
N338        H354   1.045       .  S
C340        C341   1.408       .  A
C340        H345   1.084   1_545  S
C341        C342   1.417       .  A
C341        N346   1.438       .  S
C342        C343   1.410       .  A
C343        C344   1.400       .  A
C343        H347   1.083       .  S
C344        N348   1.438       .  S
N346        H349   1.046       .  S
N346        H350   1.045       .  S
N348        H351   1.045       .  S
N348        H988   1.046       .  S
H352        N984   1.046       .  S
C357        C358   1.416       .  A
C357        C362   1.405       .  A
C358        C359   1.406       .  A
C358        N363   1.438       .  S
C359        C360   1.401       .  A
C359        H364   1.084       .  S
C360        C365   1.488   1_545  S
C360        C361   1.412       .  A
C361        C362   1.409       .  A
C361        N366   1.438   1_545  S
C362        H367   1.084       .  S
N363        H383   1.045       .  S
N363        H384   1.046       .  S
C365        C368   1.402       .  A
C365        C372   1.410       .  A
N366        H381   1.045       .  S
N366        H382   1.046       .  S
C368        C369   1.408       .  A
C368        H373   1.084       .  S
C369        C370   1.418       .  A
C369        N374   1.438       .  S
C370        C371   1.405       .  A
C371        C372   1.406       .  A
C371        H375   1.084       .  S
C372        N376   1.438   1_565  S
N374        H377   1.046       .  S
N374        H378   1.046       .  S
N376        H379   1.046       .  S
N376        H380   1.045       .  S
C385        C386   1.416       .  A
C385        C390   1.406       .  A
C386        C387   1.408       .  A
C386        N391   1.438       .  S
C387        C388   1.402       .  A
C387        H392   1.084   1_455  S
C388        C393   1.475   1_455  S
C388        C389   1.405       .  A
C389        C390   1.398       .  A
C389        N394   1.438       .  S
C390        H395   1.084       .  S
N391        H411   1.045       .  S
N391        H412   1.046       .  S
C393        C396   1.399       .  A
C393        C400   1.408       .  A
N394        H409   1.046       .  S
N394        H410   1.046       .  S
C396        C397   1.400       .  A
C396        H401   1.084       .  S
C397        C398   1.415       .  A
C397        N402   1.439       .  S
C398        C399   1.405       .  A
C399        C400   1.404       .  A
C399        H403   1.084       .  S
C400        N404   1.438   1_655  S
N402        H405   1.046       .  S
N402        H406   1.046       .  S
N404        H407   1.046       .  S
N404        H408   1.046       .  S
C413        C414   1.417       .  A
C413        C418   1.408       .  A
C414        C415   1.406       .  A
C414        N419   1.438       .  S
C415        C416   1.400       .  A
C415        H420   1.084   1_455  S
C416       C1057   1.474   1_454  S
C416        C417   1.404       .  A
C417        C418   1.402       .  A
C417        N422   1.438   1_554  S
C418        H423   1.084       .  S
N419        H439   1.045       .  S
N419        H440   1.046       .  S
C421       C1052   1.474   1_655  S
C421        C424   1.400       .  A
C421        C428   1.406       .  A
N422        H437   1.046       .  S
N422       H1074   1.045       .  S
C424        C425   1.404       .  A
C424        H429   1.084   1_655  S
C425        C426   1.414       .  A
C425        N430   1.438       .  S
C426        C427   1.407       .  A
C427        C428   1.404       .  A
C427        H431   1.084       .  S
C428       N1068   1.438       .  S
N430        H433   1.046       .  S
N430        H434   1.046       .  S
N432       C1064   1.438   1_554  S
N432        H435   1.046       .  S
N432        H436   1.045       .  S
H438       N1058   1.045       .  S
C441        C442   1.419       .  A
C441        C446   1.406       .  A
C442        C443   1.394       .  A
C442        N447   1.433       .  S
C443        C444   1.400       .  A
C443        H448   1.084       .  S
C444        C449   1.484       .  S
C444        C445   1.411       .  A
C445        C446   1.409       .  A
C445        N450   1.437       .  S
C446        H451   1.084       .  S
N447        H467   1.046       .  S
N447        H468   1.044       .  S
C449        C452   1.402       .  A
C449        C456   1.410       .  A
N450        H465   1.046       .  S
N450        H466   1.046       .  S
C452        C453   1.407       .  A
C452        H457   1.084       .  S
C453        C454   1.417       .  A
C453        N458   1.438       .  S
C454        C455   1.405       .  A
C455        C456   1.404       .  A
C455        H459   1.083       .  S
C456        N460   1.438       .  S
N458        H461   1.046       .  S
N458        H462   1.046       .  S
N460        H463   1.045       .  S
N460        H464   1.046       .  S
C469        C470   1.416       .  A
C469        C474   1.408       .  A
C470        C471   1.407       .  A
C470        N475   1.438       .  S
C471        C472   1.402       .  A
C471        H476   1.084   1_565  S
C472        C477   1.477   1_565  S
C472        C473   1.405       .  A
C473        C474   1.399       .  A
C473        N478   1.438       .  S
C474        H479   1.083       .  S
N475        H495   1.046       .  S
N475        H496   1.046       .  S
C477        C480   1.400       .  A
C477        C484   1.410       .  A
N478        H493   1.046       .  S
N478        H494   1.046       .  S
C480        C481   1.401       .  A
C480        H485   1.084       .  S
C481        C482   1.411       .  A
C481        N486   1.438       .  S
C482        C483   1.403       .  A
C483        C484   1.405       .  A
C483        H487   1.084       .  S
C484        N488   1.438   1_545  S
N486        H489   1.046       .  S
N486        H490   1.046       .  S
N488        H491   1.046   1_565  S
N488        H492   1.045       .  S
C497        C498   1.420       .  A
C497        C502   1.409       .  A
C498        C499   1.408       .  A
C498        N503   1.438       .  S
C499        C500   1.400       .  A
C499        H504   1.084       .  S
C500       C1141   1.484   1_545  S
C500        C501   1.408       .  A
C501        C502   1.409       .  A
C501        N506   1.438   1_545  S
C502        H507   1.083       .  S
N503        H523   1.046       .  S
N503        H524   1.046       .  S
C505       C1136   1.485   1_564  S
C505        C508   1.401       .  A
C505        C512   1.410       .  A
N506        H521   1.046       .  S
N506       H1158   1.045       .  S
C508        C509   1.408       .  A
C508       H1149   1.084   1_554  S
C509        C510   1.416       .  A
C509        N514   1.438       .  S
C510        C511   1.404       .  A
C511        C512   1.407       .  A
C511        H515   1.084       .  S
C512        N516   1.437   1_565  S
H513       C1144   1.084       .  S
N514        H518   1.046       .  S
N514       H1153   1.046   1_554  S
N516        H519   1.046       .  S
N516        H520   1.046       .  S
H517       N1150   1.046       .  S
H522       N1142   1.045       .  S
C525        C526   1.414       .  A
C525        C530   1.405       .  A
C526        C527   1.401       .  A
C526        N531   1.436       .  S
C527        C528   1.398       .  A
C527       H1168   1.084       .  S
C528       C1169   1.475       .  S
C528        C529   1.408       .  A
C529        C530   1.406       .  A
C529        N534   1.437       .  S
C530        H535   1.084       .  S
N531        H551   1.045       .  S
N531        H552   1.046       .  S
H532       C1163   1.084       .  S
C533       C1164   1.475   1_554  S
C533        C536   1.400       .  A
C533        C540   1.405       .  A
N534        H549   1.046       .  S
N534        H550   1.046       .  S
C536        C537   1.405       .  A
C536        H541   1.084       .  S
C537        C538   1.415       .  A
C537        N542   1.438       .  S
C538        C539   1.409       .  A
C539        C540   1.402       .  A
C539        H543   1.084       .  S
C540       N1180   1.438   1_554  S
N542        H545   1.046       .  S
N542        H546   1.046       .  S
N544       C1176   1.438       .  S
N544        H547   1.046       .  S
N544        H548   1.046       .  S
C553        C554   1.415       .  A
C553        C558   1.407       .  A
C554        C555   1.410       .  A
C554        N559   1.438       .  S
C555        C556   1.404       .  A
C555        H560   1.084       .  S
C556        C561   1.489       .  S
C556        C557   1.409       .  A
C557        C558   1.408       .  A
C557        N562   1.438       .  S
C558        H563   1.084       .  S
N559        H579   1.046       .  S
N559        H580   1.046       .  S
C561        C564   1.404       .  A
C561        C568   1.409       .  A
N562        H577   1.045       .  S
N562        H578   1.046       .  S
C564        C565   1.411       .  A
C564        H569   1.084       .  S
C565        C566   1.416       .  A
C565        N570   1.438       .  S
C566        C567   1.406       .  A
C567        C568   1.407       .  A
C567        H571   1.084       .  S
C568        N572   1.437       .  S
N570        H573   1.046       .  S
N570        H574   1.045       .  S
N572        H575   1.046       .  S
N572        H576   1.046       .  S
C581        C582   1.416       .  A
C581        C586   1.404       .  A
C582        C583   1.403       .  A
C582        N587   1.438       .  S
C583        C584   1.400       .  A
C583        H588   1.084       .  S
C584        C589   1.480       .  S
C584        C585   1.410       .  A
C585        C586   1.403       .  A
C585        N590   1.438       .  S
C586        H591   1.084       .  S
N587        H607   1.046       .  S
N587        H608   1.046       .  S
C589        C592   1.401       .  A
C589        C596   1.411       .  A
N590        H605   1.046       .  S
N590        H606   1.046       .  S
C592        C593   1.397       .  A
C592        H597   1.084       .  S
C593        C594   1.410       .  A
C593        N598   1.434       .  S
C594        C595   1.405       .  A
C595        C596   1.409       .  A
C595        H599   1.084       .  S
C596        N600   1.437       .  S
N598        H601   1.045       .  S
N598        H602   1.046       .  S
N600        H603   1.046       .  S
N600        H604   1.045       .  S
C609        C610   1.411       .  A
C609        C614   1.402       .  A
C610        C611   1.407       .  A
C610        N615   1.437       .  S
C611        C612   1.404       .  A
C611        H616   1.084       .  S
C612        C617   1.478       .  S
C612        C613   1.410       .  A
C613        C614   1.397       .  A
C613        N618   1.439       .  S
C614        H619   1.084       .  S
N615        H635   1.046       .  S
N615        H636   1.046       .  S
C617        C620   1.401       .  A
C617        C624   1.408       .  A
N618        H633   1.046       .  S
N618        H634   1.046       .  S
C620        C621   1.402       .  A
C620        H625   1.084       .  S
C621        C622   1.415       .  A
C621        N626   1.438       .  S
C622        C623   1.406       .  A
C623        C624   1.403       .  A
C623        H627   1.084       .  S
C624        N628   1.438       .  S
N626        H629   1.046       .  S
N626        H630   1.046       .  S
N628        H631   1.046       .  S
N628        H632   1.046       .  S
O637        C652   1.262       .  A
O637       Al645   1.894       .  S
C638        O648   1.261       .  A
C638        O639   1.265       .  A
C638       C1189   1.490       .  S
O639       Al641   1.929       .  S
O640        C642   1.261       .  A
O640       Al641   1.900       .  S
Al641       O649   1.897       .  S
Al641       O651   1.928       .  S
Al641       O650   1.783       .  S
C642        O655   1.260       .  A
C642       C1174   1.482       .  S
O643        C653   1.259       .  A
O643       Al645   1.887       .  S
O644        C657   1.260       .  A
O644       Al654   1.902       .  S
Al645       O658   1.907       .  S
Al645       O655   1.898       .  S
Al645       O650   1.784       .  S
O646        C653   1.263       .  A
O646       Al654   1.911       .  S
O647        C656   1.261       .  A
O647       Al654   1.895       .  S
O648       Al654   1.898       .  S
O649        C656   1.260       .  A
O650       Al654   1.785       .  S
O651        C652   1.266       .  A
C652       C1146   1.483       .  S
C653       C1258   1.478       .  S
C656       C1105   1.485       .  S
C657        O658   1.261       .  A
C657       C1230   1.477       .  S
O659        C674   1.261       .  A
O659       Al667   1.882       .  S
C660        O670   1.260       .  A
C660        O661   1.268       .  A
C660       C1006   1.488       .  S
O661       Al663   1.926       .  S
O662        C664   1.258       .  A
O662       Al663   1.898       .  S
Al663       O671   1.899       .  S
Al663       O673   1.923       .  S
Al663       O672   1.786       .  S
C664        O677   1.257       .  A
C664        C965   1.476       .  S
O665        C675   1.261       .  A
O665       Al667   1.896       .  S
O666        C679   1.261       .  A
O666       Al676   1.902       .  S
Al667       O680   1.915       .  S
Al667       O677   1.896       .  S
Al667       O672   1.785       .  S
O668        C675   1.261       .  A
O668       Al676   1.904       .  S
O669        C678   1.257       .  A
O669       Al676   1.889       .  S
O670       Al676   1.889       .  S
O671        C678   1.257       .  A
O672       Al676   1.782       .  S
O673        C674   1.266       .  A
C674       C1049   1.484       .  S
C675       C1217   1.479       .  S
C678       C1021   1.481       .  S
C679        O680   1.262       .  A
C679       C1090   1.486       .  S
O681        C696   1.264       .  A
O681       Al689   1.894       .  S
C682        O692   1.260       .  A
C682        O683   1.265       .  A
C682        C950   1.480       .  S
O683       Al685   1.920       .  S
O684        C686   1.258       .  A
O684       Al685   1.908       .  S
Al685       O693   1.905       .  S
Al685       O695   1.924       .  S
Al685       O694   1.789       .  S
C686        O699   1.255       .  A
C686        C922   1.479       .  S
O687        C697   1.261       .  A
O687       Al689   1.899       .  S
O688        C701   1.260       .  A
O688       Al698   1.903       .  S
Al689       O702   1.905       .  S
Al689       O699   1.889       .  S
Al689       O694   1.788       .  S
O690        C697   1.263       .  A
O690       Al698   1.908       .  S
O691        C700   1.257       .  A
O691       Al698   1.891       .  S
O692       Al698   1.887       .  S
O693        C700   1.259       .  A
O694       Al698   1.790       .  S
O695        C696   1.268       .  A
C696        C894   1.487       .  S
C697       C1245   1.471       .  S
C700        C866   1.484       .  S
C701        O702   1.258       .  A
C701       C1077   1.482       .  S
O703        C718   1.260       .  A
O703       Al711   1.888       .  S
C704        O714   1.263       .  A
C704        O705   1.264       .  A
C704       C1202   1.488       .  S
O705       Al707   1.922       .  S
O706        C708   1.259       .  A
O706       Al707   1.895       .  S
Al707       O715   1.896       .  S
Al707       O717   1.920       .  S
Al707       O716   1.787       .  S
C708        O721   1.260       .  A
C708       C1161   1.478       .  S
O709        C719   1.259       .  A
O709       Al711   1.892       .  S
O710        C723   1.263       .  A
O710       Al720   1.910       .  S
Al711       O724   1.914       .  S
Al711       O721   1.905       .  S
Al711       O716   1.784       .  S
O712        C719   1.262       .  A
O712       Al720   1.906       .  S
O713        C722   1.259       .  A
O713       Al720   1.894       .  S
O714       Al720   1.901       .  S
O715        C722   1.260       .  A
O716       Al720   1.784       .  S
O717        C718   1.265       .  A
C718       C1062   1.481       .  S
C719        C810   1.484       .  S
C722       C1034   1.477       .  S
C723        O724   1.262       .  A
C723        C838   1.495       .  S
O725        C740   1.261       .  A
O725       Al733   1.891       .  S
C726        O736   1.261       .  A
C726        O727   1.267       .  A
C726       C1133   1.494       .  S
O727       Al729   1.927       .  S
O728        C730   1.258       .  A
O728       Al729   1.898       .  S
Al729       O737   1.905       .  S
Al729       O739   1.921       .  S
Al729       O738   1.794       .  S
C730        O743   1.256       .  A
C730       C1118   1.471       .  S
O731        C741   1.259       .  A
O731       Al733   1.900       .  S
O732        C745   1.264       .  A
O732       Al742   1.911       .  S
Al733       O746   1.909       .  S
Al733       O743   1.887       .  S
Al733       O738   1.789       .  S
O734        C741   1.259       .  A
O734       Al742   1.896       .  S
O735        C744   1.257       .  A
O735       Al742   1.891       .  S
O736       Al742   1.896       .  S
O737        C744   1.259       .  A
O738       Al742   1.790       .  S
O739        C740   1.265       .  A
C740        C881   1.483       .  S
C741        C782   1.485       .  S
C744        C853   1.489       .  S
C745        O746   1.262       .  A
C745        C825   1.488       .  S
O747        C762   1.259       .  A
O747       Al755   1.889       .  S
C748        O758   1.263       .  A
C748        O749   1.269       .  A
C748        C937   1.487       .  S
O749       Al751   1.934       .  S
O750        C752   1.261       .  A
O750       Al751   1.905       .  S
Al751       O759   1.906       .  S
Al751       O761   1.924       .  S
Al751       O760   1.787       .  S
C752        O765   1.257       .  A
C752        C909   1.484       .  S
O753        C763   1.261       .  A
O753       Al755   1.912       .  S
O754        C767   1.263       .  A
O754       Al764   1.904       .  S
Al755       O768   1.899       .  S
Al755       O765   1.889       .  S
Al755       O760   1.782       .  S
O756        C763   1.258       .  A
O756       Al764   1.897       .  S
O757        C766   1.256       .  A
O757       Al764   1.890       .  S
O758       Al764   1.888       .  S
O759        C766   1.258       .  A
O760       Al764   1.788       .  S
O761        C762   1.265       .  A
C762        C993   1.485       .  S
C763        C797   1.483       .  S
C766        C978   1.488       .  S
C767        O768   1.263       .  A
C767        C769   1.481       .  S
C769        C770   1.414       .  A
C769        C774   1.406       .  A
C770        C771   1.408       .  A
C770        N775   1.438       .  S
C771        C772   1.405       .  A
C771        H776   1.084       .  S
C772        C777   1.480       .  S
C772        C773   1.408       .  A
C773        C774   1.396       .  A
C773        N778   1.439       .  S
C774        H779   1.083       .  S
N775        H795   1.046       .  S
N775        H796   1.046       .  S
C777        C780   1.403       .  A
C777        C784   1.407       .  A
N778        H793   1.046       .  S
N778        H794   1.046       .  S
C780        C781   1.405       .  A
C780        H785   1.084       .  S
C781        C782   1.416       .  A
C781        N786   1.437       .  S
C782        C783   1.409       .  A
C783        C784   1.400       .  A
C783        H787   1.083       .  S
C784        N788   1.439       .  S
N786        H789   1.046       .  S
N786        H790   1.046       .  S
N788        H791   1.046       .  S
N788        H792   1.046       .  S
C797        C798   1.412       .  A
C797        C802   1.406       .  A
C798        C799   1.407       .  A
C798        N803   1.435       .  S
C799        C800   1.404       .  A
C799        H804   1.084       .  S
C800        C805   1.483       .  S
C800        C801   1.410       .  A
C801        C802   1.400       .  A
C801        N806   1.439       .  S
C802        H807   1.084       .  S
N803        H823   1.046       .  S
N803        H824   1.046       .  S
C805        C808   1.402       .  A
C805        C812   1.409       .  A
N806        H821   1.046       .  S
N806        H822   1.045       .  S
C808        C809   1.404       .  A
C808        H813   1.084       .  S
C809        C810   1.417       .  A
C809        N814   1.437       .  S
C810        C811   1.407       .  A
C811        C812   1.401       .  A
C811        H815   1.083       .  S
C812        N816   1.438       .  S
N814        H817   1.046       .  S
N814        H818   1.046       .  S
N816        H819   1.046       .  S
N816        H820   1.046       .  S
C825        C826   1.418       .  A
C825        C830   1.405       .  A
C826        C827   1.405       .  A
C826        N831   1.439       .  S
C827        C828   1.401       .  A
C827        H832   1.084       .  S
C828        C833   1.490       .  S
C828        C829   1.411       .  A
C829        C830   1.409       .  A
C829        N834   1.437       .  S
C830        H835   1.083       .  S
N831        H851   1.046       .  S
N831        H852   1.046       .  S
C833        C836   1.401       .  A
C833        C840   1.411       .  A
N834        H849   1.046       .  S
N834        H850   1.046       .  S
C836        C837   1.406       .  A
C836        H841   1.084       .  S
C837        C838   1.420       .  A
C837        N842   1.438       .  S
C838        C839   1.408       .  A
C839        C840   1.409       .  A
C839        H843   1.083       .  S
C840        N844   1.437       .  S
N842        H845   1.046       .  S
N842        H846   1.046       .  S
N844        H847   1.046       .  S
N844        H848   1.046       .  S
C853        C854   1.416       .  A
C853        C858   1.409       .  A
C854        C855   1.409       .  A
C854        N859   1.438       .  S
C855        C856   1.403       .  A
C856        C857   1.406       .  A
C857        C858   1.403       .  A
C857        N862   1.438   1_556  S
C858        H863   1.083       .  S
N859        H879   1.046       .  S
N859        H880   1.046       .  S
C861        C864   1.400       .  A
C861        C868   1.410       .  A
N862        H877   1.046       .  S
N862        H878   1.046       .  S
C864        C865   1.401       .  A
C865        C866   1.413       .  A
C865        N870   1.433       .  S
C866        C867   1.406       .  A
C867        C868   1.408       .  A
C867        H871   1.083       .  S
C868        N872   1.437   1_455  S
N870        H873   1.046       .  S
N870        H874   1.046       .  S
N872        H875   1.045       .  S
N872        H876   1.046       .  S
C881        C882   1.415       .  A
C881        C886   1.404       .  A
C882        C883   1.407       .  A
C882        N887   1.438       .  S
C883        C884   1.401       .  A
C883        H888   1.084       .  S
C884        C889   1.486   1_655  S
C884        C885   1.411       .  A
C885        C886   1.407       .  A
C885        N890   1.438   1_655  S
C886        H891   1.084       .  S
N887        H907   1.046       .  S
N887        H908   1.045       .  S
C889        C892   1.402       .  A
C889        C896   1.410       .  A
N890        H905   1.046       .  S
N890        H906   1.046       .  S
C892        C893   1.407       .  A
C892        H897   1.084       .  S
C893        C894   1.416       .  A
C893        N898   1.438       .  S
C894        C895   1.406       .  A
C895        C896   1.407       .  A
C895        H899   1.084       .  S
C896        N900   1.438   1_455  S
N898        H901   1.046       .  S
N898        H902   1.046       .  S
N900        H903   1.046       .  S
N900        H904   1.045       .  S
C909        C910   1.416       .  A
C909        C914   1.404       .  A
C910        C911   1.402       .  A
C910        N915   1.437       .  S
C911        C912   1.401       .  A
C911        H916   1.084       .  S
C912        C917   1.489       .  S
C912        C913   1.413       .  A
C913        C914   1.408       .  A
C913        N918   1.437       .  S
C914        H919   1.084       .  S
N915        H935   1.044       .  S
N915        H936   1.045       .  S
C917        C920   1.405       .  A
C917        C924   1.412       .  A
N918        H933   1.046       .  S
N918        H934   1.045       .  S
C920        C921   1.407       .  A
C920        H925   1.083       .  S
C921        C922   1.411       .  A
C921        N926   1.438       .  S
C922        C923   1.404       .  A
C923        C924   1.403       .  A
C923        H927   1.084       .  S
C924        N928   1.438       .  S
N926        H929   1.046       .  S
N926        H930   1.046       .  S
N928        H931   1.046       .  S
N928        H932   1.045       .  S
C937        C938   1.415       .  A
C937        C942   1.407       .  A
C938        C939   1.409       .  A
C938        N943   1.438       .  S
C939        C940   1.403       .  A
C939        H944   1.084       .  S
C940        C941   1.408       .  A
C941        C942   1.405       .  A
C942        H947   1.083       .  S
N943        H963   1.046       .  S
N943        H964   1.046       .  S
C945        C948   1.403       .  A
C945        C952   1.409       .  A
N946        H961   1.046       .  S
N946        H962   1.046       .  S
C948        C949   1.406       .  A
C948        H953   1.084       .  S
C949        C950   1.411       .  A
C949        N954   1.438       .  S
C950        C951   1.406       .  A
C951        C952   1.407       .  A
C951        H955   1.084       .  S
N954        H957   1.045       .  S
N954        H958   1.046       .  S
N956        H959   1.046       .  S
N956        H960   1.046       .  S
C965        C966   1.411       .  A
C965        C970   1.404       .  A
C966        C967   1.401       .  A
C966        N971   1.433       .  S
C967        C968   1.399       .  A
C968        C969   1.409       .  A
C969        C970   1.406       .  A
C969        N974   1.438   1_565  S
C970        H975   1.084       .  S
N971        H991   1.045       .  S
N971        H992   1.046       .  S
C973        C976   1.401       .  A
C973        C980   1.403       .  A
N974        H989   1.046       .  S
N974        H990   1.045       .  S
C976        C977   1.408       .  A
C976        H981   1.084   1_545  S
C977        C978   1.417       .  A
C977        N982   1.438       .  S
C978        C979   1.410       .  A
C979        C980   1.400       .  A
C979        H983   1.083       .  S
C980        N984   1.438   1_556  S
N982        H985   1.046       .  S
N982        H986   1.045       .  S
N984        H987   1.045       .  S
C993        C994   1.416       .  A
C993        C998   1.405       .  A
C994        C995   1.406       .  A
C994        N999   1.438       .  S
C995        C996   1.401       .  A
C995       H1000   1.084       .  S
C996       C1001   1.488   1_545  S
C996        C997   1.412       .  A
C997        C998   1.409       .  A
C997       N1002   1.438   1_545  S
C998       H1003   1.084       .  S
N999       H1019   1.045       .  S
N999       H1020   1.046       .  S
C1001      C1004   1.402       .  A
C1001      C1008   1.410       .  A
N1002      H1017   1.045       .  S
N1002      H1018   1.046       .  S
C1004      C1005   1.408       .  A
C1004      H1009   1.084       .  S
C1005      C1006   1.418       .  A
C1005      N1010   1.438       .  S
C1006      C1007   1.405       .  A
C1007      C1008   1.406       .  A
C1007      H1011   1.084       .  S
C1008      N1012   1.438   1_565  S
N1010      H1013   1.046       .  S
N1010      H1014   1.046       .  S
N1012      H1015   1.046       .  S
N1012      H1016   1.045       .  S
C1021      C1022   1.416       .  A
C1021      C1026   1.406       .  A
C1022      C1023   1.408       .  A
C1022      N1027   1.438       .  S
C1023      C1024   1.402       .  A
C1023      H1028   1.084   1_455  S
C1024      C1029   1.475   1_455  S
C1024      C1025   1.405       .  A
C1025      C1026   1.398       .  A
C1025      N1030   1.438       .  S
C1026      H1031   1.084       .  S
N1027      H1047   1.045       .  S
N1027      H1048   1.046       .  S
C1029      C1032   1.399       .  A
C1029      C1036   1.408       .  A
N1030      H1045   1.046       .  S
N1030      H1046   1.046       .  S
C1032      C1033   1.400       .  A
C1032      H1037   1.084       .  S
C1033      C1034   1.415       .  A
C1033      N1038   1.439       .  S
C1034      C1035   1.405       .  A
C1035      C1036   1.404       .  A
C1035      H1039   1.084       .  S
C1036      N1040   1.438   1_655  S
N1038      H1041   1.046       .  S
N1038      H1042   1.046       .  S
N1040      H1043   1.046       .  S
N1040      H1044   1.046       .  S
C1049      C1050   1.417       .  A
C1049      C1054   1.408       .  A
C1050      C1051   1.406       .  A
C1050      N1055   1.438       .  S
C1051      C1052   1.400       .  A
C1051      H1056   1.084   1_455  S
C1052      C1053   1.404       .  A
C1053      C1054   1.402       .  A
C1053      N1058   1.438       .  S
C1054      H1059   1.084       .  S
N1055      H1075   1.045       .  S
N1055      H1076   1.046       .  S
C1057      C1060   1.400       .  A
C1057      C1064   1.406       .  A
N1058      H1073   1.046       .  S
C1060      C1061   1.404       .  A
C1060      H1065   1.084   1_655  S
C1061      C1062   1.414       .  A
C1061      N1066   1.438       .  S
C1062      C1063   1.407       .  A
C1063      C1064   1.405       .  A
C1063      H1067   1.084       .  S
N1066      H1069   1.046       .  S
N1066      H1070   1.046       .  S
N1068      H1071   1.046       .  S
N1068      H1072   1.046       .  S
C1077      C1078   1.419       .  A
C1077      C1082   1.406       .  A
C1078      C1079   1.394       .  A
C1078      N1083   1.433       .  S
C1079      C1080   1.400       .  A
C1079      H1084   1.084       .  S
C1080      C1085   1.484       .  S
C1080      C1081   1.411       .  A
C1081      C1082   1.409       .  A
C1081      N1086   1.437       .  S
C1082      H1087   1.084       .  S
N1083      H1103   1.046       .  S
N1083      H1104   1.044       .  S
C1085      C1088   1.402       .  A
C1085      C1092   1.410       .  A
N1086      H1101   1.046       .  S
N1086      H1102   1.046       .  S
C1088      C1089   1.407       .  A
C1088      H1093   1.084       .  S
C1089      C1090   1.417       .  A
C1089      N1094   1.438       .  S
C1090      C1091   1.405       .  A
C1091      C1092   1.404       .  A
C1091      H1095   1.083       .  S
C1092      N1096   1.438       .  S
N1094      H1097   1.046       .  S
N1094      H1098   1.046       .  S
N1096      H1099   1.045       .  S
N1096      H1100   1.046       .  S
C1105      C1106   1.416       .  A
C1105      C1110   1.408       .  A
C1106      C1107   1.407       .  A
C1106      N1111   1.438       .  S
C1107      C1108   1.402       .  A
C1107      H1112   1.084   1_565  S
C1108      C1113   1.477   1_565  S
C1108      C1109   1.405       .  A
C1109      C1110   1.399       .  A
C1109      N1114   1.438       .  S
C1110      H1115   1.083       .  S
N1111      H1131   1.046       .  S
N1111      H1132   1.046       .  S
C1113      C1116   1.400       .  A
C1113      C1120   1.410       .  A
N1114      H1129   1.046       .  S
N1114      H1130   1.046       .  S
C1116      C1117   1.401       .  A
C1116      H1121   1.084       .  S
C1117      C1118   1.411       .  A
C1117      N1122   1.438       .  S
C1118      C1119   1.403       .  A
C1119      C1120   1.405       .  A
C1119      H1123   1.084       .  S
C1120      N1124   1.438   1_545  S
N1122      H1125   1.046       .  S
N1122      H1126   1.046       .  S
N1124      H1127   1.046   1_565  S
N1124      H1128   1.045       .  S
C1133      C1134   1.419       .  A
C1133      C1138   1.409       .  A
C1134      C1135   1.408       .  A
C1134      N1139   1.438       .  S
C1135      C1136   1.400       .  A
C1135      H1140   1.084   1_556  S
C1136      C1137   1.408       .  A
C1137      C1138   1.409       .  A
C1137      N1142   1.438   1_545  S
C1138      H1143   1.083       .  S
N1139      H1159   1.046       .  S
N1139      H1160   1.046       .  S
C1141      C1144   1.401       .  A
C1141      C1148   1.410       .  A
N1142      H1157   1.046       .  S
C1144      C1145   1.408       .  A
C1145      C1146   1.416       .  A
C1145      N1150   1.438       .  S
C1146      C1147   1.404       .  A
C1147      C1148   1.407       .  A
C1147      H1151   1.084       .  S
C1148      N1152   1.437   1_565  S
N1150      H1154   1.046       .  S
N1152      H1155   1.046       .  S
N1152      H1156   1.046       .  S
C1161      C1162   1.414       .  A
C1161      C1166   1.405       .  A
C1162      C1163   1.401       .  A
C1162      N1167   1.436       .  S
C1163      C1164   1.398       .  A
C1164      C1165   1.408       .  A
C1165      C1166   1.406       .  A
C1165      N1170   1.437       .  S
C1166      H1171   1.084       .  S
N1167      H1187   1.045       .  S
N1167      H1188   1.046       .  S
C1169      C1172   1.400       .  A
C1169      C1176   1.405       .  A
N1170      H1185   1.046       .  S
N1170      H1186   1.046       .  S
C1172      C1173   1.405       .  A
C1172      H1177   1.084       .  S
C1173      C1174   1.415       .  A
C1173      N1178   1.438       .  S
C1174      C1175   1.409       .  A
C1175      C1176   1.402       .  A
C1175      H1179   1.084       .  S
N1178      H1181   1.045       .  S
N1178      H1182   1.046       .  S
N1180      H1183   1.046       .  S
N1180      H1184   1.046       .  S
C1189      C1190   1.415       .  A
C1189      C1194   1.407       .  A
C1190      C1191   1.410       .  A
C1190      N1195   1.438       .  S
C1191      C1192   1.404       .  A
C1191      H1196   1.084       .  S
C1192      C1197   1.489       .  S
C1192      C1193   1.409       .  A
C1193      C1194   1.408       .  A
C1193      N1198   1.438       .  S
C1194      H1199   1.084       .  S
N1195      H1215   1.046       .  S
N1195      H1216   1.046       .  S
C1197      C1200   1.403       .  A
C1197      C1204   1.409       .  A
N1198      H1213   1.046       .  S
N1198      H1214   1.046       .  S
C1200      C1201   1.411       .  A
C1200      H1205   1.084       .  S
C1201      C1202   1.416       .  A
C1201      N1206   1.438       .  S
C1202      C1203   1.406       .  A
C1203      C1204   1.407       .  A
C1203      H1207   1.084       .  S
C1204      N1208   1.437       .  S
N1206      H1209   1.046       .  S
N1206      H1210   1.045       .  S
N1208      H1211   1.046       .  S
N1208      H1212   1.046       .  S
C1217      C1218   1.416       .  A
C1217      C1222   1.404       .  A
C1218      C1219   1.403       .  A
C1218      N1223   1.438       .  S
C1219      C1220   1.400       .  A
C1219      H1224   1.084       .  S
C1220      C1225   1.480       .  S
C1220      C1221   1.410       .  A
C1221      C1222   1.403       .  A
C1221      N1226   1.438       .  S
C1222      H1227   1.084       .  S
N1223      H1243   1.046       .  S
N1223      H1244   1.046       .  S
C1225      C1228   1.401       .  A
C1225      C1232   1.411       .  A
N1226      H1241   1.046       .  S
N1226      H1242   1.046       .  S
C1228      C1229   1.397       .  A
C1228      H1233   1.084       .  S
C1229      C1230   1.410       .  A
C1229      N1234   1.434       .  S
C1230      C1231   1.405       .  A
C1231      C1232   1.409       .  A
C1231      H1235   1.084       .  S
C1232      N1236   1.437       .  S
N1234      H1237   1.045       .  S
N1234      H1238   1.046       .  S
N1236      H1239   1.046       .  S
N1236      H1240   1.045       .  S
C1245      C1246   1.411       .  A
C1245      C1250   1.402       .  A
C1246      C1247   1.407       .  A
C1246      N1251   1.437       .  S
C1247      C1248   1.404       .  A
C1247      H1252   1.084       .  S
C1248      C1253   1.478       .  S
C1248      C1249   1.410       .  A
C1249      C1250   1.397       .  A
C1249      N1254   1.439       .  S
C1250      H1255   1.084       .  S
N1251      H1271   1.046       .  S
N1251      H1272   1.046       .  S
C1253      C1256   1.401       .  A
C1253      C1260   1.408       .  A
N1254      H1269   1.046       .  S
N1254      H1270   1.046       .  S
C1256      C1257   1.402       .  A
C1256      H1261   1.084       .  S
C1257      C1258   1.415       .  A
C1257      N1262   1.438       .  S
C1258      C1259   1.406       .  A
C1259      C1260   1.403       .  A
C1259      H1263   1.084       .  S
C1260      N1264   1.438       .  S
N1262      H1265   1.046       .  S
N1262      H1266   1.046       .  S
N1264      H1267   1.046       .  S
N1264      H1268   1.046       .  S
