geometry optimzed in LAMMPS
_audit_creation_date              2020-11-30 
_audit_creation_method            'lammps2cif' 
_symmetry_space_group_name_H-M    'P1' 
_symmetry_Int_Tables_number       1 
_symmetry_cell_setting            triclinic 
loop_ 
_symmetry_equiv_pos_as_xyz 
  x,y,z 
_cell_length_a                    46.36670569 
_cell_length_b                    45.37831468148028 
_cell_length_c                    43.299629973589255 
_cell_angle_alpha                 90.25443098340173 
_cell_angle_beta                  90.71677455247196 
_cell_angle_gamma                 89.41620454994863 
loop_ 
_atom_site_label 
_atom_site_type_symbol 
_atom_site_fract_x 
_atom_site_fract_y 
_atom_site_fract_z 
_atom_site_charge 
O1          O  0.03398342  0.96458184  0.22282084    -0.74900
O2          O  0.97693800  0.02554294  0.21864878    -0.75000
O3          O  0.03517138  0.02368406  0.22071974    -0.75000
O4          O  0.97551654  0.96610209  0.22062811    -0.75100
O5          O  0.97460929  0.96747981  0.27204379    -0.75000
O6          O  0.03413309  0.02582030  0.27211936    -0.75000
O7          O  0.97557505  0.02706676  0.27008280    -0.75000
O8          O  0.03337139  0.96651300  0.27425770    -0.75000
Ni9        Ni  0.00538920  0.99487550  0.21890841     1.25400
Ni10       Ni  0.00433780  0.99676132  0.27398820     1.25400
C11         C  0.04370832  0.95607672  0.24914897     0.87200
C12         C  0.96678878  0.03633982  0.24366745     0.87200
C13         C  0.04474696  0.03406322  0.24637331     0.87200
C14         C  0.96504972  0.95733271  0.24621475     0.87400
O15         O  0.21066409  0.29764549  0.25725019    -0.81400
O16         O  0.24795302  0.19715937  0.17014223    -0.66100
O17         O  0.23804683  0.24478708  0.24090828    -1.12700
C18         C  0.31336740  0.30100916  0.19942962     1.05500
O19         O  0.29569418  0.19816046  0.16953971    -0.79300
O20         O  0.31810998  0.22473287  0.22030343    -0.66900
Ni21       Ni  0.19984924  0.25724798  0.25195336     1.34900
C22         C  0.31305196  0.23592549  0.24661591     0.84200
O23         O  0.21641196  0.19099652  0.22015285    -0.79800
O24         O  0.18552910  0.21780229  0.24853830    -0.90100
C25         C  0.27174153  0.18860980  0.15930872     0.83800
O26         O  0.18546680  0.26681003  0.21164683    -0.68300
O27         O  0.32185426  0.27661769  0.18781225    -0.87600
C28         C  0.19196119  0.25626311  0.18545854     0.84600
C29         C  0.19361546  0.19359180  0.23615933     1.06200
H30         H  0.25985692  0.26043807  0.17450833     0.38000
O31         O  0.26824879  0.25014170  0.19195403    -1.10300
O32         O  0.29426684  0.25603809  0.25093458    -0.66900
Ni33       Ni  0.26389463  0.27456486  0.22762107     1.26300
O34         O  0.21252624  0.23811564  0.18167620    -0.67100
O35         O  0.28976880  0.30401774  0.21378392    -0.79400
C36         C  0.23307412  0.30657618  0.27135866     0.84000
O37         O  0.25786310  0.29759373  0.26365632    -0.66600
Ni38       Ni  0.30645166  0.23793483  0.18032681     1.27400
Ni39       Ni  0.24252254  0.22026310  0.20574001     1.26100
H40         H  0.24623094  0.23457481  0.25853816     0.38600
O41         O  0.69992018  0.19742967  0.24428257    -0.81400
O42         O  0.80387676  0.23745550  0.16106122    -0.66100
O43         O  0.75175003  0.22587245  0.22709299    -1.12700
C44         C  0.69936629  0.30410914  0.18241137     1.05500
O45         O  0.80210532  0.28625406  0.16077616    -0.79300
O46         O  0.77226691  0.30807835  0.21034482    -0.66900
Ni47       Ni  0.73910992  0.18624432  0.23448960     1.34900
C48         C  0.75846379  0.30354028  0.23505442     0.84200
O49         O  0.80601127  0.20520470  0.21151213    -0.79800
O50         O  0.77705945  0.16969980  0.22803707    -0.90100
C51         C  0.81371958  0.26194663  0.15255203     0.83800
O52         O  0.72778965  0.17803109  0.19267935    -0.68300
O53         O  0.72386757  0.31317781  0.17364786    -0.87600
C54         C  0.74244667  0.18221833  0.16851688     0.84600
C55         C  0.80198723  0.17954459  0.22197231     1.06200
H56         H  0.74117457  0.24977615  0.15951833     0.38000
O57         O  0.74977163  0.25782156  0.17804370    -1.10300
O58         O  0.73902904  0.28396500  0.23696615    -0.66900
Ni59       Ni  0.72347855  0.25273579  0.21135069     1.26300
O60         O  0.76327061  0.20025074  0.16792739    -0.67100
O61         O  0.69564048  0.27910447  0.19460032    -0.79400
C62         C  0.68866449  0.22150929  0.25360218     0.84000
O63         O  0.69787193  0.24629125  0.24483175    -0.66600
Ni64       Ni  0.76224999  0.29717078  0.16882866     1.27400
Ni65       Ni  0.77816992  0.23125764  0.19414222     1.26100
H66         H  0.76024050  0.23349343  0.24604952     0.38600
O67         O  0.80610554  0.70254374  0.17571920    -0.81400
O68         O  0.70230381  0.74316984  0.25423709    -0.66100
O69         O  0.75236213  0.73040957  0.18725170    -1.12700
C70         C  0.80211151  0.81155539  0.23133986     1.05500
O71         O  0.69927830  0.79098018  0.24460476    -0.79300
O72         O  0.73194926  0.81555073  0.19982820    -0.66900
Ni73       Ni  0.76580257  0.69156033  0.17701024     1.34900
C74         C  0.74492024  0.80884362  0.17505547     0.84200
O75         O  0.70023389  0.70652812  0.20641275    -0.79800
O76         O  0.72680620  0.67692448  0.17606882    -0.90100
C77         C  0.69001582  0.76791725  0.25776186     0.83800
O78         O  0.77152349  0.67664338  0.21794618    -0.68300
O79         O  0.77738819  0.81988005  0.24107482    -0.87600
C80         C  0.76134221  0.68398689  0.24402016     0.84600
C81         C  0.70302476  0.68411461  0.18882631     1.06200
H82         H  0.76305319  0.75819727  0.25315459     0.38000
O83         O  0.75361049  0.76468079  0.23431410    -1.10300
O84         O  0.76323394  0.78785314  0.17369807    -0.66900
Ni85       Ni  0.77959613  0.75885161  0.20146965     1.26300
O86         O  0.74518560  0.70660109  0.24766730    -0.67100
O87         O  0.80627247  0.78739807  0.21682319    -0.79400
C88         C  0.81656259  0.72599990  0.16453829     0.84000
O89         O  0.80486905  0.75085991  0.16893252    -0.66600
Ni90       Ni  0.73894632  0.80364659  0.24176105     1.27400
Ni91       Ni  0.72693202  0.73549463  0.22086552     1.26100
H92         H  0.74260861  0.73790115  0.16903199     0.38600
O93         O  0.30101432  0.80448042  0.17134676    -0.81400
O94         O  0.26234474  0.69417528  0.24960400    -0.66100
O95         O  0.27410918  0.75178478  0.18818320    -1.12700
C96         C  0.19833567  0.80205885  0.23968070     1.05500
O97         O  0.21479402  0.69564054  0.24532019    -0.79300
O98         O  0.19089490  0.73322027  0.20517600    -0.66900
Ni99       Ni  0.31284396  0.76526778  0.18344479     1.34900
C100        C  0.19747121  0.74577265  0.18017911     0.84200
O101        O  0.29427268  0.69581968  0.19988327    -0.79800
O102        O  0.33011936  0.72714270  0.19251670    -0.90100
C103        C  0.23805076  0.68255791  0.25323779     0.83800
O104        O  0.31574330  0.77749155  0.22556828    -0.68300
O105        O  0.19051496  0.77690789  0.24934854    -0.87600
C106        C  0.31308106  0.76038376  0.24845202     0.84600
C107        C  0.32042323  0.70101400  0.19425846     1.06200
H108        H  0.25099608  0.75797108  0.25589158     0.38000
O109        O  0.24282546  0.75025562  0.23692932    -1.10300
O110        O  0.21793976  0.76408408  0.17828360    -0.66900
Ni111      Ni  0.24733856  0.77914022  0.20574198     1.26300
O112        O  0.29899337  0.73647091  0.24660245    -0.67100
O113        O  0.22072494  0.80598823  0.22370197    -0.79400
C114        C  0.27700104  0.81731899  0.16569756     0.84000
O115        O  0.25320481  0.80755601  0.17494186    -0.66600
Ni116      Ni  0.20480781  0.73702243  0.24645664     1.27400
Ni117      Ni  0.26877676  0.72270611  0.21898923     1.26100
H118        H  0.26713619  0.74445488  0.16851248     0.38600
O119        O  0.29969235  0.96164848  0.93454358    -0.74900
O120        O  0.29513805  0.03606296  0.97532866    -0.75000
O121        O  0.29574898  0.97956835  0.99351067    -0.75000
O122        O  0.29895398  0.01870033  0.91564901    -0.75100
O123        O  0.25089662  0.01896618  0.91305417    -0.75000
O124        O  0.24784563  0.97712252  0.98914846    -0.75000
O125        O  0.24708303  0.03426584  0.97327635    -0.75000
O126        O  0.25173318  0.96153494  0.92943017    -0.75000
Ni127      Ni  0.29912040  0.99908662  0.95474180     1.25400
Ni128      Ni  0.24767277  0.99799497  0.95094484     1.25400
C129        C  0.27636045  0.94906610  0.92591809     0.87200
C130        C  0.27038522  0.04663190  0.98239575     0.87200
C131        C  0.27132929  0.97157281  0.00396063     0.87200
C132        C  0.27533121  0.02586832  0.90183335     0.87400
O133        O  0.98742299  0.29047943  0.99182522    -0.74900
O134        O  0.04726388  0.29328440  0.93142396    -0.75000
O135        O  0.98904878  0.29084451  0.92960165    -0.75000
O136        O  0.04572494  0.29323731  0.99409748    -0.75100
O137        O  0.04890092  0.24419032  0.99325459    -0.75000
O138        O  0.99062267  0.24173052  0.92987953    -0.75000
O139        O  0.04912253  0.24420692  0.93069795    -0.75000
O140        O  0.99060789  0.24143503  0.99242200    -0.75000
Ni141      Ni  0.01733081  0.29368956  0.96175858     1.25400
Ni142      Ni  0.01995073  0.24112800  0.96152912     1.25400
C143        C  0.97910077  0.26551847  0.00205159     0.87200
C144        C  0.05783610  0.26912409  0.92077824     0.87200
C145        C  0.98011160  0.26600388  0.91942244     0.87200
C146        C  0.05662621  0.26914335  0.00441110     0.87400
O147        O  0.71046491  0.02119724  0.92051741    -0.74900
O148        O  0.70975040  0.96381857  0.98617919    -0.75000
O149        O  0.70909049  0.02372309  0.98346369    -0.75000
O150        O  0.71072429  0.96127956  0.92327634    -0.75100
O151        O  0.75874906  0.96139658  0.92484936    -0.75000
O152        O  0.75712381  0.02366724  0.98518829    -0.75000
O153        O  0.75777070  0.96378038  0.98750419    -0.75000
O154        O  0.75847402  0.02116517  0.92267453    -0.75000
Ni155      Ni  0.70828834  0.99251088  0.95330684     1.25400
Ni156      Ni  0.75968904  0.99248851  0.95512234     1.25400
C157        C  0.73471999  0.03071870  0.91081270     0.87200
C158        C  0.73374811  0.95422958  0.99761873     0.87200
C159        C  0.73281338  0.03400867  0.99431387     0.87200
C160        C  0.73502015  0.95110071  0.91396841     0.87400
O161        O  0.04349673  0.69271115  0.00053372    -0.74900
O162        O  0.98107832  0.68729523  0.94153581    -0.75000
O163        O  0.03926919  0.68655223  0.93870776    -0.75000
O164        O  0.98533667  0.69276742  0.00352673    -0.75100
O165        O  0.98430985  0.74171428  0.99891743    -0.75000
O166        O  0.03986422  0.73555298  0.93467662    -0.75000
O167        O  0.98173506  0.73618085  0.93640980    -0.75000
O168        O  0.04236379  0.74164931  0.99633454    -0.75000
Ni169      Ni  0.01226349  0.68809077  0.97125556     1.25400
Ni170      Ni  0.01195096  0.74053715  0.96639093     1.25400
C171        C  0.05324597  0.71816443  0.00807371     0.87200
C172        C  0.97157934  0.71100024  0.92881446     0.87200
C173        C  0.04895255  0.70996468  0.92648803     0.87200
C174        C  0.97600336  0.71806478  0.01205954     0.87400
O175        O  0.30149626  0.77014928  0.77822158    -0.81400
O176        O  0.26091095  0.71404850  0.65493785    -0.66100
O177        O  0.27377296  0.76868044  0.71984360    -1.12700
C178        C  0.19612996  0.71811868  0.76443161     1.05500
O179        O  0.21455253  0.72524192  0.65428688    -0.79300
O180        O  0.18969069  0.75917223  0.69725595    -0.66900
Ni181      Ni  0.31188794  0.77566963  0.73547573     1.34900
C182        C  0.19653469  0.78135364  0.71357057     0.84200
O183        O  0.29575763  0.75908007  0.66169421    -0.79800
O184        O  0.32561623  0.78290390  0.69428319    -0.90100
C185        C  0.23651167  0.71373464  0.64160018     0.83800
O186        O  0.32668871  0.73611200  0.73425667    -0.68300
O187        O  0.18815327  0.71211429  0.73680012    -0.87600
C188        C  0.31959739  0.71328934  0.71894914     0.84600
C189        C  0.31762287  0.77490436  0.66719055     1.06200
H190        H  0.24748397  0.70525785  0.71998732     0.38000
O191        O  0.24070412  0.72438588  0.71315216    -1.10300
O192        O  0.21741443  0.78062917  0.73303750    -0.66900
Ni193      Ni  0.24611039  0.75138641  0.74610314     1.26300
O194        O  0.29746314  0.71275385  0.70115784    -0.67100
O195        O  0.21859395  0.73278199  0.77129970    -0.79400
C196        C  0.27877763  0.77923597  0.79165233     0.84000
O197        O  0.25417068  0.77757412  0.77885760    -0.66600
Ni198      Ni  0.20287835  0.71921531  0.69629954     1.27400
Ni199      Ni  0.26856008  0.74115707  0.68719447     1.26100
H200        H  0.26640550  0.78748798  0.71271401     0.38600
O201        O  0.98341321  0.96093151  0.71924362    -0.74900
O202        O  0.03958190  0.02227551  0.71607491    -0.75000
O203        O  0.98108830  0.02065883  0.71553530    -0.75000
O204        O  0.04197205  0.96250124  0.72022283    -0.75100
O205        O  0.04242159  0.95929221  0.66890548    -0.75000
O206        O  0.98121698  0.01772825  0.66419824    -0.75000
O207        O  0.03968851  0.01886783  0.66471999    -0.75000
O208        O  0.98383018  0.95797489  0.66787619    -0.75000
Ni209      Ni  0.01152689  0.99170117  0.71958785     1.25400
Ni210      Ni  0.01178108  0.98833040  0.66462171     1.25400
C211        C  0.97428171  0.94939938  0.69391509     0.87200
C212        C  0.04885023  0.03070053  0.68979471     0.87200
C213        C  0.97111619  0.02897649  0.68917517     0.87200
C214        C  0.05229835  0.95119831  0.69544448     0.87400
O215        O  0.29649204  0.19741568  0.73586821    -0.81400
O216        O  0.24903645  0.30461041  0.65866057    -0.66100
O217        O  0.26781531  0.25202285  0.72400326    -1.12700
C218        C  0.18757514  0.19912099  0.68446116     1.05500
O219        O  0.20235220  0.30456722  0.66901858    -0.79300
O220        O  0.18150820  0.26925108  0.71362109    -0.66900
Ni221      Ni  0.30657139  0.23818068  0.73025940     1.34900
C222        C  0.19076712  0.25835968  0.73888039     0.84200
O223        O  0.28788816  0.30666162  0.70440739    -0.79800
O224        O  0.32120938  0.27745007  0.72693992    -0.90100
C225        C  0.22412338  0.31613752  0.65637940     0.83800
O226        O  0.31459975  0.22977267  0.68805627    -0.68300
O227        O  0.17867418  0.22327683  0.67249151    -0.87600
C228        C  0.30653370  0.24206169  0.66308578     0.84600
C229        C  0.31223589  0.30261823  0.71779261     1.06200
H230        H  0.23769607  0.24077919  0.66008730     0.38000
O231        O  0.23156298  0.25034430  0.67888661    -1.10300
O232        O  0.21278254  0.24143572  0.74050403    -0.66900
Ni233      Ni  0.23955726  0.22398410  0.71190342     1.26300
O234        O  0.28665024  0.26164425  0.66198041    -0.67100
O235        O  0.21131022  0.19644098  0.69918024    -0.79400
C236        C  0.27406429  0.18590979  0.74703751     0.84000
O237        O  0.24942953  0.19785386  0.74430361    -0.66600
Ni238      Ni  0.19254253  0.26328648  0.67162548     1.27400
Ni239      Ni  0.25966942  0.27867091  0.69103761     1.26100
H240        H  0.26204179  0.26149221  0.74302130     0.38600
O241        O  0.80831141  0.29059880  0.75087760    -0.81400
O242        O  0.70595912  0.24957702  0.66463262    -0.66100
O243        O  0.75627622  0.26316064  0.73255386    -1.12700
C244        C  0.81015237  0.18280541  0.68890980     1.05500
O245        O  0.70687635  0.20101145  0.66913146    -0.79300
O246        O  0.74041594  0.17586199  0.71402628    -0.66900
Ni247      Ni  0.76925533  0.30278433  0.73986301     1.34900
C248        C  0.75071649  0.18251374  0.74045441     0.84200
O249        O  0.70233443  0.28484546  0.71341406    -0.79800
O250        O  0.73118044  0.31993552  0.73233328    -0.90100
C251        C  0.69581233  0.22457655  0.65812132     0.83800
O252        O  0.78067082  0.31089715  0.69815694    -0.68300
O253        O  0.78660677  0.17557620  0.67539127    -0.87600
C254        C  0.76624040  0.30597888  0.67350024     0.84600
C255        C  0.70626265  0.31073152  0.72408791     1.06200
H256        H  0.76881017  0.23754816  0.66704155     0.38000
O257        O  0.75926222  0.22955405  0.68480396    -1.10300
O258        O  0.76686572  0.20475570  0.74494827    -0.66900
Ni259      Ni  0.78436869  0.23447416  0.71945851     1.26300
O260        O  0.74608912  0.28719223  0.67233983    -0.67100
O261        O  0.81242708  0.20588425  0.70567561    -0.79400
C262        C  0.81855624  0.26644625  0.76157938     0.84000
O263        O  0.80851337  0.24161422  0.75394757    -0.66600
Ni264      Ni  0.74738014  0.19048218  0.67348793     1.27400
Ni265      Ni  0.73058822  0.25719851  0.69860818     1.26100
H266        H  0.74708049  0.25646075  0.75111304     0.38600
O267        O  0.71054193  0.78675328  0.66742656    -0.81400
O268        O  0.80976364  0.74177195  0.75393749    -0.66100
O269        O  0.76300349  0.75724218  0.68308180    -1.12700
C270        C  0.70924151  0.67684424  0.72006694     1.05500
O271        O  0.81113762  0.69363659  0.74611817    -0.79300
O272        O  0.78152784  0.67183731  0.69604074    -0.66900
Ni273      Ni  0.75050757  0.79688894  0.67443219     1.34900
C274        C  0.76969577  0.67858267  0.67033933     0.84200
O275        O  0.81509216  0.77870725  0.70715948    -0.79800
O276        O  0.78916925  0.81151432  0.67953051    -0.90100
C277        C  0.81973988  0.71649040  0.76052150     0.83800
O278        O  0.74128155  0.80900190  0.71552688    -0.68300
O279        O  0.73319824  0.66768893  0.73147152    -0.87600
C280        C  0.75183674  0.80143119  0.74153107     0.84600
C281        C  0.81255325  0.80297456  0.69270931     1.06200
H282        H  0.74845945  0.72903271  0.74713417     0.38000
O283        O  0.75861830  0.72227175  0.72905540    -1.10300
O284        O  0.75166793  0.69982953  0.66753093    -0.66900
Ni285      Ni  0.73432732  0.72931629  0.69402678     1.26300
O286        O  0.76891793  0.77951078  0.74475982    -0.67100
O287        O  0.70622000  0.70146091  0.70632095    -0.79400
C288        C  0.69979061  0.76402193  0.65461925     0.84000
O289        O  0.71040203  0.73856814  0.65931097    -0.66600
Ni290      Ni  0.77157256  0.68274629  0.73740090     1.27400
Ni291      Ni  0.78698683  0.75046793  0.71850609     1.26100
H292        H  0.77320991  0.75016547  0.66513953     0.38600
O293        O  0.47174973  0.47163905  0.75494201    -0.74900
O294        O  0.53111769  0.52964381  0.75361140    -0.75000
O295        O  0.47230156  0.53157672  0.75308934    -0.75000
O296        O  0.53056888  0.46997851  0.75514029    -0.75100
O297        O  0.52964003  0.46831151  0.70374372    -0.75000
O298        O  0.47227403  0.53033929  0.70169024    -0.75000
O299        O  0.53090842  0.52796786  0.70217569    -0.75000
O300        O  0.47096321  0.47066912  0.70348065    -0.75000
Ni301      Ni  0.50140651  0.50076705  0.75602896     1.25400
Ni302      Ni  0.50092050  0.49925576  0.70098354     1.25400
C303        C  0.46139591  0.46173310  0.72941052     0.87200
C304        C  0.54111441  0.53807762  0.72769429     0.87200
C305        C  0.46266989  0.54121024  0.72701160     0.87200
C306        C  0.53993099  0.45911555  0.72966208     0.87400
O307        O  0.53044275  0.46533837  0.15611021    -0.74900
O308        O  0.47421371  0.52702208  0.15715954    -0.75000
O309        O  0.53243913  0.52502183  0.15514779    -0.75000
O310        O  0.47208543  0.46771752  0.15849013    -0.75100
O311        O  0.47507945  0.46817692  0.20990491    -0.75000
O312        O  0.53407658  0.52627322  0.20658585    -0.75000
O313        O  0.47574632  0.52732141  0.20869149    -0.75000
O314        O  0.53324303  0.46657635  0.20753300    -0.75000
Ni315      Ni  0.50227146  0.49621153  0.15487473     1.25400
Ni316      Ni  0.50469502  0.49713302  0.20999772     1.25400
C317        C  0.54109616  0.45570771  0.18158134     0.87200
C318        C  0.46534223  0.53693622  0.18308517     0.87200
C319        C  0.54294301  0.53542928  0.18043924     0.87200
C320        C  0.46343893  0.45873803  0.18483736     0.87400
O321        O  0.75182518  0.52089775  0.42409740    -0.74900
O322        O  0.75333848  0.45928947  0.48506764    -0.75000
O323        O  0.75375000  0.51933007  0.48686740    -0.75000
O324        O  0.75133269  0.46099567  0.42236827    -0.75100
O325        O  0.79934478  0.45951038  0.42190354    -0.75000
O326        O  0.80173556  0.51934257  0.48523326    -0.75000
O327        O  0.80143338  0.45960512  0.48509398    -0.75000
O328        O  0.79979292  0.51947343  0.42234851    -0.75000
Ni329      Ni  0.75087201  0.49015276  0.45464707     1.25400
Ni330      Ni  0.80227080  0.48941323  0.45357891     1.25400
C331        C  0.77556050  0.53031194  0.41302131     0.87200
C332        C  0.77767010  0.44960945  0.49540625     0.87200
C333        C  0.77808366  0.52910597  0.49667223     0.87200
C334        C  0.77491270  0.45057682  0.41141643     0.87400
O335        O  0.52842947  0.76204644  0.48681738    -0.74900
O336        O  0.46501631  0.76389349  0.42995680    -0.75000
O337        O  0.52293005  0.76058308  0.42486971    -0.75000
O338        O  0.47041204  0.76545723  0.49124721    -0.75100
O339        O  0.47091001  0.81454872  0.48906033    -0.75000
O340        O  0.52649211  0.80956380  0.42488218    -0.75000
O341        O  0.46810743  0.81284485  0.42689038    -0.75000
O342        O  0.52927712  0.81120181  0.48760510    -0.75000
Ni343      Ni  0.49671381  0.76128508  0.45828201     1.25400
Ni344      Ni  0.49886710  0.81386496  0.45705494     1.25400
C345        C  0.53901457  0.78620440  0.49698830     0.87200
C346        C  0.45590908  0.78858673  0.41931614     0.87200
C347        C  0.53350423  0.78422974  0.41398216     0.87200
C348        C  0.46111205  0.79065219  0.50026816     0.87400
O349        O  0.23726034  0.47095491  0.44532416    -0.74900
O350        O  0.23652350  0.54806493  0.47975855    -0.75000
O351        O  0.23449569  0.49291269  0.50299808    -0.75000
O352        O  0.23910915  0.52541977  0.42239651    -0.75100
O353        O  0.19108406  0.52830308  0.41958877    -0.75000
O354        O  0.18649381  0.49256312  0.49902735    -0.75000
O355        O  0.18839585  0.54890387  0.47824909    -0.75000
O356        O  0.18933079  0.47274981  0.44028283    -0.75000
Ni357      Ni  0.23852361  0.50936625  0.46288219     1.25400
Ni358      Ni  0.18704057  0.51073920  0.45928761     1.25400
C359        C  0.21356278  0.45967266  0.43590351     0.87200
C360        C  0.21248486  0.56122448  0.48465339     0.87200
C361        C  0.20984169  0.48613067  0.51372444     0.87200
C362        C  0.21589192  0.53197197  0.40759615     0.87400
O363        O  0.46518066  0.24154471  0.48834467    -0.74900
O364        O  0.52587002  0.24027923  0.42923736    -0.75000
O365        O  0.46766486  0.24027916  0.42638636    -0.75000
O366        O  0.52351613  0.24126346  0.49166689    -0.75100
O367        O  0.52427283  0.19213890  0.49197148    -0.75000
O368        O  0.46752805  0.19116042  0.42728295    -0.75000
O369        O  0.52581988  0.19117240  0.42909099    -0.75000
O370        O  0.46537332  0.19247429  0.48954329    -0.75000
Ni371      Ni  0.49560885  0.24253978  0.45892695     1.25400
Ni372      Ni  0.49584156  0.18994529  0.45958759     1.25400
C373        C  0.45476534  0.21737139  0.49826114     0.87200
C374        C  0.53550143  0.21563996  0.41886721     0.87200
C375        C  0.45814809  0.21561432  0.41629512     0.87200
C376        C  0.53324944  0.21687204  0.50251530     0.87400
C377        C  0.64029594  0.79925525  0.60605425    -0.11300
C378        C  0.62821242  0.77470423  0.59098107     0.05800
C379        C  0.63862884  0.74640481  0.59882360    -0.10100
C380        C  0.66139479  0.74285331  0.61998252    -0.11700
C381        C  0.67411780  0.76748861  0.63414695    -0.01500
C382        C  0.66287283  0.79567619  0.62745353    -0.10600
C383        C  0.60564570  0.77854210  0.56642292     0.05800
H384        H  0.62932699  0.72688032  0.58847407     0.07700
H385        H  0.66928836  0.72079984  0.62489214     0.11200
H386        H  0.67210895  0.81514105  0.63803313     0.11500
H387        H  0.63311830  0.82139497  0.60051720     0.07800
C388        C  0.58509186  0.80160484  0.56786195    -0.11300
C389        C  0.56398364  0.80486893  0.54466666    -0.10600
C390        C  0.56263593  0.78476486  0.52000802    -0.01500
C391        C  0.58321784  0.76200299  0.51830054    -0.11700
C392        C  0.60468356  0.75914852  0.54098084    -0.10100
H393        H  0.58486908  0.81677760  0.58721030     0.07800
H394        H  0.54810351  0.82243622  0.54656324     0.11500
H395        H  0.58274429  0.74641686  0.49927850     0.11200
H396        H  0.62059150  0.74172083  0.53843457     0.07800
C397        C  0.79700896  0.61527706  0.62009005    -0.11300
C398        C  0.77974033  0.61853659  0.59338279     0.05800
C399        C  0.76137040  0.64325975  0.59105151    -0.10100
C400        C  0.75943117  0.66365707  0.61530782    -0.11700
C401        C  0.77558019  0.65970562  0.64276225    -0.01500
C402        C  0.79483591  0.63552418  0.64458064    -0.10600
C403        C  0.77965388  0.59557444  0.56867448     0.05800
H404        H  0.74807498  0.64653292  0.57058409     0.07700
H405        H  0.74434545  0.68190994  0.61297826     0.11200
H406        H  0.80754503  0.63166408  0.66534566     0.11500
H407        H  0.81130130  0.59638575  0.62256015     0.07800
C408        C  0.80553311  0.58413760  0.55675818    -0.11300
C409        C  0.80510085  0.56268205  0.53330450    -0.10600
C410        C  0.77876620  0.55192397  0.52151315    -0.01500
C411        C  0.75293380  0.56319262  0.53376962    -0.11700
C412        C  0.75338354  0.58479852  0.55693717    -0.10100
H413        H  0.82608739  0.59209582  0.56531023     0.07800
H414        H  0.82540876  0.55449886  0.52444400     0.11500
H415        H  0.73226536  0.55537880  0.52540289     0.11200
H416        H  0.73310419  0.59291324  0.56595664     0.07800
C417        C  0.66123374  0.61382265  0.74329360    -0.11300
C418        C  0.63636308  0.61927255  0.72529849     0.05800
C419        C  0.63532710  0.64420276  0.70618718    -0.10100
C420        C  0.65877922  0.66320418  0.70489585    -0.11700
C421        C  0.68386154  0.65753426  0.72253016    -0.01500
C422        C  0.68478654  0.63268313  0.74183501    -0.10600
C423        C  0.61173780  0.59876432  0.72605236     0.05800
H424        H  0.61628339  0.64907622  0.69232529     0.07700
H425        H  0.65740091  0.68209572  0.68972867     0.11200
H426        H  0.70378175  0.62768611  0.75572614     0.11500
H427        H  0.66270139  0.59461248  0.75800515     0.07800
C428        C  0.59786092  0.59013944  0.69850038    -0.11300
C429        C  0.57481534  0.57059208  0.69906005    -0.10600
C430        C  0.56504915  0.55936967  0.72721502    -0.01500
C431        C  0.57886411  0.56811193  0.75480936    -0.11700
C432        C  0.60204585  0.58753374  0.75421723    -0.10100
H433        H  0.60513789  0.59817426  0.67643961     0.07800
H434        H  0.56472051  0.56419989  0.67739526     0.11500
H435        H  0.57191273  0.55978789  0.77687302     0.11200
H436        H  0.61221759  0.59401940  0.77581463     0.07800
C437        C  0.76457294  0.37868365  0.53891778    -0.11300
C438        C  0.77847647  0.38400348  0.56760936     0.05800
C439        C  0.79276083  0.41110854  0.57156592    -0.10100
C440        C  0.79303360  0.43204933  0.54782793    -0.11700
C441        C  0.77835753  0.42688600  0.51984168    -0.01500
C442        C  0.76410187  0.40005907  0.51559324    -0.10600
C443        C  0.77697127  0.36212137  0.59361195     0.05800
H444        H  0.80319421  0.41664266  0.59327055     0.07700
H445        H  0.80401899  0.45272513  0.55166743     0.11200
H446        H  0.75289818  0.39548660  0.49402284     0.11500
H447        H  0.75397367  0.35798421  0.53428162     0.07800
C448        C  0.75308236  0.34339876  0.59622119    -0.11300
C449        C  0.75052812  0.32437687  0.62135497    -0.10600
C450        C  0.77144463  0.32373454  0.64519624    -0.01500
C451        C  0.79570755  0.34180224  0.64244989    -0.11700
C452        C  0.79858882  0.36048602  0.61686427    -0.10100
H453        H  0.73555944  0.34411371  0.57951867     0.07800
H454        H  0.73136061  0.31101609  0.62269738     0.11500
H455        H  0.81231721  0.34176803  0.66025339     0.11200
H456        H  0.81773786  0.37381044  0.61556388     0.07800
C457        C  0.62951093  0.19698604  0.61557439    -0.11300
C458        C  0.62316022  0.22085300  0.59590009     0.05800
C459        C  0.64047026  0.24604898  0.59762498    -0.10100
C460        C  0.66361309  0.24732611  0.61835530    -0.11700
C461        C  0.67031753  0.22326416  0.63752943    -0.01500
C462        C  0.65302128  0.19809865  0.63605931    -0.10600
C463        C  0.59911428  0.21936647  0.57304468     0.05800
H464        H  0.63661769  0.26458055  0.58241083     0.07700
H465        H  0.67674873  0.26693728  0.61876772     0.11200
H466        H  0.65762469  0.17934141  0.65075750     0.11500
H467        H  0.61629912  0.17745555  0.61518025     0.07800
C468        C  0.59298478  0.19289153  0.55741368    -0.11300
C469        C  0.57119557  0.19189691  0.53488899    -0.10600
C470        C  0.55533545  0.21743089  0.52730204    -0.01500
C471        C  0.56120526  0.24379781  0.54313893    -0.11700
C472        C  0.58271384  0.24471291  0.56589394    -0.10100
H473        H  0.60550658  0.17308987  0.56198514     0.07800
H474        H  0.56723294  0.17129871  0.52292103     0.11500
H475        H  0.54913705  0.26377482  0.53798644     0.11200
H476        H  0.58644357  0.26531586  0.57792343     0.07800
C477        C  0.59373909  0.40065072  0.70227827    -0.11300
C478        C  0.60903265  0.39358773  0.72956555     0.05800
C479        C  0.60091605  0.40782608  0.75713771    -0.10100
C480        C  0.57820328  0.42860643  0.75736375    -0.11700
C481        C  0.56321307  0.43600824  0.72993850    -0.01500
C482        C  0.57129788  0.42164776  0.70242569    -0.10600
C483        C  0.63360722  0.37186112  0.72903806     0.05800
H484        H  0.61205673  0.40275047  0.77861993     0.07700
H485        H  0.57265915  0.43918668  0.77898284     0.11200
H486        H  0.56034292  0.42673475  0.68084184     0.11500
H487        H  0.59955732  0.39036424  0.68058852     0.07800
C488        C  0.63153777  0.34540810  0.71207028    -0.11300
C489        C  0.65480730  0.32537234  0.71096352    -0.10600
C490        C  0.68099648  0.33139299  0.72644535    -0.01500
C491        C  0.68302622  0.35784221  0.74347213    -0.11700
C492        C  0.65960835  0.37766846  0.74492996    -0.10100
H493        H  0.61178607  0.34011093  0.69974430     0.07800
H494        H  0.65241660  0.30534368  0.69752119     0.11500
H495        H  0.70279813  0.36329959  0.75567944     0.11200
H496        H  0.66207657  0.39792545  0.75796550     0.07800
C497        C  0.39567448  0.24773352  0.54969008    -0.11300
C498        C  0.38230313  0.22204039  0.56010715     0.05800
C499        C  0.39265671  0.19456349  0.54953140    -0.10100
C500        C  0.41613790  0.19287856  0.52943185    -0.11700
C501        C  0.42985204  0.21863610  0.51957146    -0.01500
C502        C  0.41909688  0.24606067  0.52974151    -0.10600
C503        C  0.35936399  0.22414902  0.58386566     0.05800
H504        H  0.38270214  0.17435790  0.55697017     0.07700
H505        H  0.42363688  0.17141968  0.52176636     0.11200
H506        H  0.42899848  0.26638234  0.52256402     0.11500
H507        H  0.38863341  0.26921318  0.55777472     0.07800
C508        C  0.36003810  0.20519789  0.60942678    -0.11300
C509        C  0.34173297  0.21010439  0.63438676    -0.10600
C510        C  0.32216292  0.23402314  0.63440408    -0.01500
C511        C  0.31998930  0.25170727  0.60786383    -0.11700
C512        C  0.33846492  0.24687936  0.58291634    -0.10100
H513        H  0.37591245  0.18758780  0.61100757     0.07800
H514        H  0.34381984  0.19584052  0.65429117     0.11500
H515        H  0.30504492  0.27019172  0.60698168     0.11200
H516        H  0.33707235  0.26156584  0.56329853     0.07800
C517        C  0.23488915  0.44234058  0.58252084    -0.11300
C518        C  0.21122664  0.42378586  0.58688406     0.05800
C519        C  0.18543410  0.42943498  0.57049257    -0.10100
C520        C  0.18414331  0.45167747  0.54832781    -0.11700
C521        C  0.20870271  0.46839522  0.54204799    -0.01500
C522        C  0.23369374  0.46434202  0.56020528    -0.10600
C523        C  0.21451817  0.39693948  0.60593816     0.05800
H524        H  0.16687833  0.41544459  0.57327748     0.07700
H525        H  0.16460689  0.45428547  0.53459674     0.11200
H526        H  0.25284034  0.47715476  0.55609417     0.11500
H527        H  0.25479193  0.43900011  0.59544627     0.07800
C528        C  0.24009652  0.38017310  0.60434280    -0.11300
C529        C  0.24318902  0.35415585  0.62098301    -0.10600
C530        C  0.22066772  0.34408615  0.63940338    -0.01500
C531        C  0.19498574  0.36073084  0.64101146    -0.11700
C532        C  0.19196008  0.38698893  0.62445299    -0.10100
H533        H  0.25757513  0.38680814  0.58963567     0.07800
H534        H  0.26312296  0.34167549  0.61899792     0.11500
H535        H  0.17728358  0.35351380  0.65509673     0.11200
H536        H  0.17204883  0.39952876  0.62618666     0.07800
C537        C  0.40912303  0.40410207  0.75709460    -0.11300
C538        C  0.39338353  0.39794195  0.72989882     0.05800
C539        C  0.40004049  0.41310931  0.70274951    -0.10100
C540        C  0.42215827  0.43374061  0.70264502    -0.11700
C541        C  0.43797422  0.43986394  0.72976041    -0.01500
C542        C  0.43111162  0.42498065  0.75706556    -0.10600
C543        C  0.37115245  0.37467667  0.72921686     0.05800
H544        H  0.38860325  0.40847510  0.68134477     0.07700
H545        H  0.42686874  0.44490610  0.68126740     0.11200
H546        H  0.44292446  0.42923973  0.77832723     0.11500
H547        H  0.40436261  0.39282210  0.77839361     0.07800
C548        C  0.37665416  0.34751207  0.74357319    -0.11300
C549        C  0.35715718  0.32446206  0.74039137    -0.10600
C550        C  0.33159855  0.32802755  0.72285449    -0.01500
C551        C  0.32550756  0.35561250  0.70952055    -0.11700
C552        C  0.34514824  0.37868597  0.71260962    -0.10100
H553        H  0.39659550  0.34367897  0.75628350     0.07800
H554        H  0.36247597  0.30359757  0.75120221     0.11500
H555        H  0.30595294  0.35915677  0.69604831     0.11200
H556        H  0.34021028  0.39956463  0.70163541     0.07800
C557        C  0.91827675  0.89580409  0.72220033    -0.11300
C558        C  0.90793178  0.88396701  0.69419199     0.05800
C559        C  0.92030001  0.89290355  0.66641376    -0.10100
C560        C  0.94220950  0.91370301  0.66649691    -0.11700
C561        C  0.95214420  0.92618700  0.69437959    -0.01500
C562        C  0.94015067  0.91682695  0.72229635    -0.10600
C563        C  0.88380645  0.86289436  0.69364671     0.05800
H564        H  0.91295122  0.88379055  0.64456701     0.07700
H565        H  0.95109478  0.92026956  0.64459601     0.11200
H566        H  0.94736470  0.92602358  0.74414706     0.11500
H567        H  0.90894501  0.88933086  0.74391800     0.07800
C568        C  0.88367052  0.83877773  0.71381351    -0.11300
C569        C  0.86090871  0.81881214  0.71291108    -0.10600
C570        C  0.83766850  0.82282776  0.69208465    -0.01500
C571        C  0.83785398  0.84706433  0.67199814    -0.11700
C572        C  0.86075363  0.86678903  0.67267214    -0.10100
H573        H  0.90130096  0.83524383  0.73006511     0.07800
H574        H  0.86126118  0.80054347  0.72892867     0.11500
H575        H  0.82022144  0.85089476  0.65582770     0.11200
H576        H  0.86024217  0.88540501  0.65709569     0.07800
C577        C  0.91409181  0.08520431  0.71403207    -0.11300
C578        C  0.90446272  0.09692555  0.68567554     0.05800
C579        C  0.91662294  0.08577340  0.65833821    -0.10100
C580        C  0.93811883  0.06371315  0.65937611    -0.11700
C581        C  0.94784831  0.05204248  0.68778199    -0.01500
C582        C  0.93538350  0.06302387  0.71507406    -0.34600
C583        C  0.88145871  0.12027427  0.68476181     0.05800
H584        H  0.90973124  0.09440124  0.63613607     0.07700
H585        H  0.94721940  0.05590223  0.63790001     0.11200
H586        H  0.94215130  0.05453821  0.73737466     0.11500
H587        H  0.90488337  0.09300196  0.73546903     0.07800
C588        C  0.88251733  0.14464455  0.70495157    -0.11300
C589        C  0.86005129  0.16563970  0.70536224    -0.10600
C590        C  0.83568204  0.16259266  0.68589438    -0.01500
C591        C  0.83504530  0.13857477  0.66515255    -0.11700
C592        C  0.85770071  0.11783734  0.66445744    -0.10100
H593        H  0.90066989  0.14731241  0.72066195     0.07800
H594        H  0.86136330  0.18374179  0.72168456     0.11500
H595        H  0.81671074  0.13542274  0.64980327     0.11200
H596        H  0.85616640  0.09928122  0.64872989     0.07800
C597        C  0.09838618  0.09285834  0.71308762    -0.11300
C598        C  0.11061569  0.10028341  0.68467045     0.05800
C599        C  0.10262624  0.08454039  0.65802520    -0.10100
C600        C  0.08268124  0.06179353  0.65975452    -0.11700
C601        C  0.07030463  0.05443595  0.68816670    -0.01500
C602        C  0.07840886  0.07016087  0.71482681    -0.10600
C603        C  0.13145014  0.12461229  0.68298372     0.05800
H604        H  0.11197278  0.08970086  0.63592097     0.07700
H605        H  0.07696092  0.04998425  0.63880836     0.11200
H606        H  0.06915113  0.06510753  0.73699781     0.11500
H607        H  0.10395871  0.10494579  0.73390945     0.07800
C608        C  0.12887663  0.14617000  0.65986249    -0.11300
C609        C  0.14740061  0.17031106  0.65981503    -0.10600
C610        C  0.16905093  0.17292978  0.68258903    -0.01500
C611        C  0.17209021  0.15082519  0.70507339    -0.11700
C612        C  0.15343551  0.12699771  0.70533616    -0.10100
H613        H  0.11194211  0.14484912  0.64247436     0.07800
H614        H  0.14460937  0.18703944  0.64224011     0.11500
H615        H  0.18836862  0.15238919  0.72311960     0.11200
H616        H  0.15604625  0.11051040  0.72319707     0.07800
C617        C  0.25206314  0.66595024  0.57257670    -0.11300
C618        C  0.22474098  0.66474239  0.55818174     0.05800
C619        C  0.20236628  0.68281212  0.56924798    -0.10100
C620        C  0.20661838  0.70004915  0.59558854    -0.11700
C621        C  0.23337981  0.69963200  0.61114963    -0.01500
C622        C  0.25637889  0.68335692  0.59873000    -0.10600
C623        C  0.21893664  0.64197547  0.53447689     0.05800
H624        H  0.18126615  0.68274782  0.55824782     0.07700
H625        H  0.18860792  0.71274925  0.60444759     0.11200
H626        H  0.27728369  0.68273296  0.61017637     0.11500
H627        H  0.26967989  0.65201673  0.56489767     0.07800
C628        C  0.24042398  0.63375271  0.51348760    -0.11300
C629        C  0.23757453  0.60814446  0.49596481    -0.10600
C630        C  0.21297971  0.59064294  0.49874515    -0.01500
C631        C  0.19030452  0.60022306  0.51749049    -0.11700
C632        C  0.19334872  0.62560581  0.53544717    -0.10100
H633        H  0.26003496  0.64635372  0.51168546     0.07800
H634        H  0.25510409  0.60141789  0.48111351     0.11500
H635        H  0.17112709  0.58703977  0.51991845     0.11200
H636        H  0.17649963  0.63117938  0.55160548     0.07800
C637        C  0.40671877  0.81913294  0.55763311    -0.11300
C638        C  0.39351905  0.79279211  0.56629442     0.05800
C639        C  0.40250912  0.76607439  0.55294329    -0.10100
C640        C  0.42453114  0.76556500  0.53159568    -0.11700
C641        C  0.43810296  0.79176029  0.52317681    -0.01500
C642        C  0.42884585  0.81864266  0.53606892    -0.10600
C643        C  0.37154075  0.79238488  0.59045130     0.05800
H644        H  0.39304330  0.74537315  0.55964450     0.07700
H645        H  0.43099525  0.74453703  0.52182286     0.11200
H646        H  0.43880794  0.83918142  0.52968758     0.11500
H647        H  0.39995375  0.83998992  0.56756278     0.07800
C648        C  0.37569076  0.80801438  0.61819655    -0.11300
C649        C  0.35749693  0.80334043  0.64311004    -0.10600
C650        C  0.33490726  0.78311205  0.64040235    -0.01500
C651        C  0.32978875  0.76899120  0.61190682    -0.11700
C652        C  0.34788005  0.77363799  0.58719934    -0.10100
H653        H  0.39393610  0.82249688  0.62121646     0.07800
H654        H  0.36172984  0.81468768  0.66472165     0.11500
H655        H  0.31242513  0.75340116  0.60891250     0.11200
H656        H  0.34395065  0.76176603  0.56581824     0.07800
C657        C  0.35499940  0.63864750  0.70136369    -0.11300
C658        C  0.37768352  0.63745340  0.72329570     0.05800
C659        C  0.38040765  0.66103019  0.74432265    -0.10100
C660        C  0.36130899  0.68520664  0.74325405    -0.11700
C661        C  0.33865816  0.68650388  0.72128832    -0.01500
C662        C  0.33567400  0.66274106  0.70047729    -0.10600
C663        C  0.39868107  0.61204709  0.72413625     0.05800
H664        H  0.39778168  0.66111932  0.76126430     0.07700
H665        H  0.36450696  0.70307841  0.75955303     0.11200
H666        H  0.31868759  0.66298262  0.68308404     0.11500
H667        H  0.35207323  0.62082108  0.68495639     0.07800
C668        C  0.40970314  0.59979860  0.69672314    -0.11300
C669        C  0.43024286  0.57680411  0.69765122    -0.10600
C670        C  0.44029099  0.56525696  0.72602162    -0.01500
C671        C  0.42888424  0.57717321  0.75339663    -0.11700
C672        C  0.40845691  0.60024316  0.75246481    -0.10100
H673        H  0.40292441  0.60845124  0.67449706     0.07800
H674        H  0.43845999  0.56825408  0.67606017     0.11500
H675        H  0.43588577  0.56879628  0.77566144     0.11200
H676        H  0.40019484  0.60880518  0.77402871     0.07800
C677        C  0.10445359  0.89351136  0.72861409    -0.11300
C678        C  0.11900207  0.88331135  0.70223063     0.05800
C679        C  0.11187861  0.89638445  0.67360712    -0.10100
C680        C  0.09051163  0.91850256  0.67137742    -0.11700
C681        C  0.07569685  0.92832213  0.69772122    -0.01500
C682        C  0.08319865  0.91569038  0.72640264    -0.10600
C683        C  0.14051660  0.85835944  0.70440361     0.05800
H684        H  0.12284604  0.88951566  0.65281790     0.07700
H685        H  0.08553399  0.92785231  0.64894818     0.11200
H686        H  0.07224143  0.92257221  0.74720199     0.11500
H687        H  0.10893131  0.88379759  0.75097458     0.07800
C688        C  0.15925473  0.85526506  0.73014853    -0.11300
C689        C  0.17817100  0.83090995  0.73277085    -0.10600
C690        C  0.17867351  0.80881469  0.70986492    -0.01500
C691        C  0.16039722  0.81227667  0.68386857    -0.11700
C692        C  0.14173341  0.83665472  0.68113214    -0.10100
H693        H  0.15926375  0.87166628  0.74837792     0.07800
H694        H  0.19184957  0.82899320  0.75313278     0.11500
H695        H  0.16015144  0.79580063  0.66569881     0.11200
H696        H  0.12750665  0.83792630  0.66115946     0.07800
C697        C  0.11231332  0.72817216  0.87726559    -0.11300
C698        C  0.11662016  0.70154121  0.86135574     0.05800
C699        C  0.09834078  0.67773465  0.86651748    -0.10100
C700        C  0.07607735  0.68049986  0.88767546    -0.11700
C701        C  0.07159078  0.70728789  0.90338513    -0.01500
C702        C  0.08982290  0.73110276  0.89799079    -0.10600
C703        C  0.13884166  0.69983512  0.83770013     0.05800
H704        H  0.10133526  0.65711664  0.85420820     0.07700
H705        H  0.06225305  0.66181596  0.89156680     0.11200
H706        H  0.08693028  0.75185839  0.91006597     0.11500
H707        H  0.12597656  0.74693247  0.87309690     0.07800
C708        C  0.13116632  0.69212914  0.80736371    -0.11300
C709        C  0.15049049  0.69652829  0.78352712    -0.10600
C710        C  0.17772750  0.70862550  0.78983909    -0.01500
C711        C  0.18612716  0.71403464  0.82062824    -0.11700
C712        C  0.16674540  0.70974465  0.84439236    -0.10100
H713        H  0.10960701  0.68458388  0.80185379     0.07800
H714        H  0.14349528  0.69194578  0.76005446     0.11500
H715        H  0.20712860  0.72296771  0.82625836     0.11200
H716        H  0.17300627  0.71551864  0.86782176     0.07800
C717        C  0.92782584  0.73055492  0.85784891    -0.11300
C718        C  0.90620022  0.70912484  0.85774153     0.05800
C719        C  0.90659031  0.68748554  0.88091213    -0.10100
C720        C  0.92804066  0.68768991  0.90404818    -0.11700
C721        C  0.94916686  0.70967737  0.90440490    -0.01500
C722        C  0.94892200  0.73094157  0.88099786    -0.10600
C723        C  0.88319203  0.71019935  0.83368925     0.05800
H724        H  0.89006396  0.67080971  0.88142182     0.07700
H725        H  0.92781426  0.67108530  0.92193053     0.11200
H726        H  0.96524308  0.74783948  0.88046682     0.11500
H727        H  0.92841491  0.74711994  0.83994087     0.07800
C728        C  0.87069708  0.73742718  0.82557724    -0.11300
C729        C  0.85041746  0.73931982  0.80166861    -0.10600
C730        C  0.84198052  0.71398881  0.78524420    -0.01500
C731        C  0.85399940  0.68655153  0.79373070    -0.11700
C732        C  0.87441091  0.68466854  0.81782379    -0.10100
H733        H  0.87667266  0.75738593  0.83777649     0.07800
H734        H  0.84129753  0.76074982  0.79612910     0.11500
H735        H  0.84770057  0.66659572  0.78173573     0.11200
H736        H  0.88381239  0.66341795  0.82356921     0.07800
C737        C  0.75950944  0.83737719  0.82043235    -0.11300
C738        C  0.73904316  0.86040079  0.81877758     0.05800
C739        C  0.72098584  0.86228086  0.79249805    -0.10100
C740        C  0.72425796  0.84241170  0.76785589    -0.11700
C741        C  0.74543581  0.81998106  0.76909170    -0.01500
C742        C  0.76258958  0.81736830  0.79599787    -0.10600
C743        C  0.73767765  0.88316032  0.84366724     0.05800
H744        H  0.70512574  0.87986532  0.79043544     0.07700
H745        H  0.71072709  0.84512897  0.74748160     0.11200
H746        H  0.77920708  0.80049079  0.79776622     0.11500
H747        H  0.77346729  0.83507080  0.84053463     0.07800
C748        C  0.71109936  0.89390965  0.85452729    -0.11300
C749        C  0.71015711  0.91570457  0.87758195    -0.10600
C750        C  0.73578265  0.92739056  0.89014298    -0.01500
C751        C  0.76230747  0.91654873  0.87927753    -0.11700
C752        C  0.76323483  0.89473023  0.85638883    -0.10100
H753        H  0.69103992  0.88530231  0.84534160     0.07800
H754        H  0.68934358  0.92351422  0.88542754     0.11500
H755        H  0.78246013  0.92509145  0.88828598     0.11200
H756        H  0.78405357  0.88727263  0.84820844     0.07800
C757        C  0.75583462  0.14555269  0.81920287    -0.11300
C758        C  0.73935811  0.11997932  0.81453968     0.05800
C759        C  0.72495134  0.11635683  0.78603051    -0.10100
C760        C  0.72770397  0.13722647  0.76249212    -0.11700
C761        C  0.74485529  0.16240907  0.76681625    -0.01500
C762        C  0.75850764  0.16649954  0.79570939    -0.10600
C763        C  0.73794020  0.09683684  0.83896519     0.05800
H764        H  0.71228206  0.09685806  0.78151920     0.07700
H765        H  0.71697156  0.13316252  0.74055447     0.11200
H766        H  0.77194784  0.18550898  0.79994070     0.11500
H767        H  0.76686739  0.14929373  0.84103465     0.07800
C768        C  0.76276574  0.08894084  0.85611835    -0.11300
C769        C  0.76165928  0.06737121  0.87909163    -0.10600
C770        C  0.73563884  0.05318054  0.88580268    -0.01500
C771        C  0.71080483  0.06085893  0.86851653    -0.11700
C772        C  0.71198020  0.08230123  0.84526747    -0.10100
H773        H  0.78322467  0.09925239  0.85155132     0.07800
H774        H  0.78125282  0.06199793  0.89181774     0.11500
H775        H  0.69043951  0.05030929  0.87296148     0.11200
H776        H  0.69241888  0.08790709  0.83260209     0.07800
C777        C  0.91943877  0.23986022  0.86718516    -0.11300
C778        C  0.91149799  0.26603018  0.85177930     0.05800
C779        C  0.92668492  0.29194010  0.85861644    -0.10100
C780        C  0.94904211  0.29178550  0.88042897    -0.11700
C781        C  0.95701897  0.26564916  0.89568323    -0.01500
C782        C  0.94210798  0.23963320  0.88875651    -0.10600
C783        C  0.88777645  0.26632665  0.82838351     0.05800
H784        H  0.92163994  0.31233828  0.84677131     0.07700
H785        H  0.96022962  0.31217609  0.88517692     0.11200
H786        H  0.94759492  0.21922626  0.90040837     0.11500
H787        H  0.90789394  0.21960262  0.86293331     0.07800
C788        C  0.88331638  0.24187477  0.80892343    -0.11300
C789        C  0.86108458  0.24213937  0.78692618    -0.10600
C790        C  0.84311076  0.26704082  0.78351311    -0.01500
C791        C  0.84771710  0.29166438  0.80255918    -0.11700
C792        C  0.86963518  0.29120880  0.82498033    -0.10100
H793        H  0.89719668  0.22259729  0.81039450     0.07800
H794        H  0.85803567  0.22286148  0.77244886     0.11500
H795        H  0.83384478  0.31094277  0.80072795     0.11200
H796        H  0.87203656  0.31020855  0.83995716     0.07800
C797        C  0.10689364  0.29669529  0.85761917    -0.11300
C798        C  0.11989695  0.27036415  0.84739121     0.05800
C799        C  0.11312274  0.24388615  0.86220890    -0.10100
C800        C  0.09333756  0.24360269  0.88628965    -0.11700
C801        C  0.07998541  0.26984225  0.89632378    -0.01500
C802        C  0.08727548  0.29647063  0.88197327    -0.10600
C803        C  0.13963511  0.27006051  0.82062371     0.05800
H804        H  0.12257139  0.22321571  0.85459017     0.07700
H805        H  0.08825173  0.22271145  0.89680207     0.11200
H806        H  0.07740215  0.31707448  0.88914633     0.11500
H807        H  0.11187503  0.31743320  0.84671668     0.07800
C808        C  0.13209588  0.28490024  0.79323096    -0.11300
C809        C  0.14924846  0.28205781  0.76696510    -0.10600
C810        C  0.17444696  0.26447362  0.76760245    -0.01500
C811        C  0.18257789  0.25073047  0.79549788    -0.11700
C812        C  0.16531879  0.25340135  0.82162993    -0.10100
H813        H  0.11230583  0.29772945  0.79174869     0.07800
H814        H  0.14227848  0.29292920  0.74590747     0.11500
H815        H  0.20183568  0.23707738  0.79692370     0.11200
H816        H  0.17180231  0.24200281  0.84255538     0.07800
C817        C  0.30282074  0.06746957  0.83273073    -0.11300
C818        C  0.27772892  0.08265403  0.82301505     0.05800
C819        C  0.25160158  0.07690661  0.83784468    -0.10100
C820        C  0.25073398  0.05739678  0.86250909    -0.11700
C821        C  0.27602610  0.04342107  0.87326532    -0.01500
C822        C  0.30200610  0.04813425  0.85776260    -0.10600
C823        C  0.27891675  0.10647873  0.79972310     0.05800
H824        H  0.23196204  0.08859179  0.83147814     0.07700
H825        H  0.23039910  0.05433117  0.87404543     0.11200
H826        H  0.32179872  0.03742453  0.86541090     0.11500
H827        H  0.32319914  0.07105494  0.82147688     0.07800
C828        C  0.30234504  0.12594050  0.79948860    -0.11300
C829        C  0.30133075  0.15118809  0.78118252    -0.10600
C830        C  0.27668506  0.15765919  0.76328594    -0.01500
C831        C  0.25393926  0.13756667  0.76221915    -0.11700
C832        C  0.25520071  0.11201142  0.77994248    -0.10100
H833        H  0.32079458  0.12258591  0.81467507     0.07800
H834        H  0.31914363  0.16643539  0.78228047     0.11500
H835        H  0.23499144  0.14187603  0.74803660     0.11200
H836        H  0.23714817  0.09707834  0.77892629     0.07800
C837        C  0.25591974  0.81820216  0.86373400    -0.11300
C838        C  0.28100956  0.83404285  0.87078548     0.05800
C839        C  0.30696831  0.82618574  0.85639411    -0.10100
C840        C  0.30693140  0.80569151  0.83229936    -0.11700
C841        C  0.28090675  0.79308364  0.82232083    -0.01500
C842        C  0.25581343  0.79797209  0.83950711    -0.10600
C843        C  0.27883483  0.86222700  0.88767612     0.05800
H844        H  0.32664542  0.83800552  0.86148429     0.07700
H845        H  0.32664124  0.80197675  0.81963393     0.11200
H846        H  0.23560198  0.78787833  0.83276585     0.11500
H847        H  0.23581980  0.82333199  0.87516212     0.07800
C848        C  0.25606454  0.88175310  0.88034321    -0.11300
C849        C  0.25537814  0.91000805  0.89277862    -0.10600
C850        C  0.27761088  0.91942698  0.91249404    -0.01500
C851        C  0.30027013  0.89994159  0.92023710    -0.11700
C852        C  0.30083628  0.87144243  0.90796177    -0.10100
H853        H  0.23925021  0.87557350  0.86405415     0.07800
H854        H  0.23773206  0.92470693  0.88647672     0.11500
H855        H  0.31741033  0.90669677  0.93586746     0.11200
H856        H  0.31861718  0.85678919  0.91389152     0.07800
C857        C  0.40667039  0.80557329  0.35153282    -0.11300
C858        C  0.38503864  0.78428302  0.35505310     0.05800
C859        C  0.38583239  0.76638337  0.38150404    -0.10100
C860        C  0.40867786  0.76828007  0.40264875    -0.11700
C861        C  0.43077363  0.78867118  0.39831146    -0.01500
C862        C  0.42914997  0.80796873  0.37319168    -0.10600
C863        C  0.36340998  0.77898230  0.32998428     0.05800
H864        H  0.36916112  0.75038510  0.38556400     0.07700
H865        H  0.40925119  0.75356970  0.42229525     0.11200
H866        H  0.44602084  0.82385647  0.36947441     0.11500
H867        H  0.40709550  0.81948645  0.33132085     0.07800
C868        C  0.35351703  0.80211499  0.31092469    -0.11300
C869        C  0.33642260  0.79628660  0.28481783    -0.10600
C870        C  0.32834033  0.76731057  0.27764635    -0.01500
C871        C  0.33669867  0.74443488  0.29764467    -0.11700
C872        C  0.35425778  0.75013503  0.32330998    -0.10100
H873        H  0.35949778  0.82467760  0.31574401     0.07800
H874        H  0.32991926  0.81436766  0.26995637     0.11500
H875        H  0.33090894  0.72183737  0.29258197     0.11200
H876        H  0.36176367  0.73160904  0.33696662     0.07800
C877        C  0.20932982  0.60943035  0.27863738    -0.11300
C878        C  0.23093869  0.60038023  0.29963281     0.05800
C879        C  0.25644172  0.61675868  0.30218458    -0.10100
C880        C  0.25936517  0.64280387  0.28574678    -0.11700
C881        C  0.23669156  0.65308461  0.26683326    -0.01500
C882        C  0.21207146  0.63575100  0.26255926    -0.10600
C883        C  0.22516983  0.57723356  0.32249456     0.05800
H884        H  0.27332935  0.61063397  0.31848954     0.07700
H885        H  0.27863102  0.65576225  0.28929411     0.11200
H886        H  0.19456032  0.64300134  0.24754957     0.11500
H887        H  0.18970221  0.59691758  0.27582361     0.07800
C888        C  0.19820694  0.57659126  0.33696325    -0.11300
C889        C  0.19460543  0.56026504  0.36373980    -0.10600
C890        C  0.21798857  0.54461916  0.37660944    -0.01500
C891        C  0.24415062  0.54307564  0.36067325    -0.11700
C892        C  0.24766187  0.55913596  0.33368105    -0.10100
H893        H  0.18051073  0.59049676  0.32909209     0.07800
H894        H  0.17412690  0.56154884  0.37545866     0.11500
H895        H  0.26230393  0.53050770  0.36978356     0.11200
H896        H  0.26845204  0.55871898  0.32255358     0.07800
C897        C  0.35051506  0.62333892  0.19411144    -0.11300
C898        C  0.37919581  0.62822959  0.18590306     0.05800
C899        C  0.38841873  0.65695713  0.18003133    -0.10100
C900        C  0.36926939  0.68063366  0.18261590    -0.11700
C901        C  0.34049810  0.67589932  0.19084786    -0.01500
C902        C  0.33123520  0.64699203  0.19641003    -0.10600
C903        C  0.39990669  0.60362948  0.18436025     0.05800
H904        H  0.41061490  0.66110799  0.17401314     0.07700
H905        H  0.37704459  0.70263237  0.17827050     0.11200
H906        H  0.30920139  0.64265999  0.20289954     0.11500
H907        H  0.34307831  0.60124391  0.19867255     0.07800
C908        C  0.40334060  0.58450279  0.20950713    -0.11300
C909        C  0.42476545  0.56275725  0.20914207    -0.10600
C910        C  0.44262570  0.55959082  0.18338822    -0.01500
C911        C  0.43850810  0.57811310  0.15782034    -0.11700
C912        C  0.41743804  0.60017622  0.15842588    -0.10100
H913        H  0.39005015  0.58700098  0.22976851     0.07800
H914        H  0.42737591  0.54844145  0.22895417     0.11500
H915        H  0.45199598  0.57596701  0.13767274     0.11200
H916        H  0.41491492  0.61469771  0.13876493     0.07800
C917        C  0.24664097  0.91944721  0.06555431    -0.11300
C918        C  0.27169231  0.91675426  0.08397185     0.05800
C919        C  0.29543322  0.93464069  0.07776127    -0.10100
C920        C  0.29486463  0.95343381  0.05240013    -0.11700
C921        C  0.27044961  0.95485097  0.03295556    -0.01500
C922        C  0.24598602  0.93843977  0.04031426    -0.10600
C923        C  0.27401657  0.89337334  0.10753231     0.05800
H924        H  0.31478642  0.93341752  0.09197857     0.07700
H925        H  0.31385696  0.96621503  0.04750734     0.11200
H926        H  0.22686119  0.93914372  0.02570466     0.11500
H927        H  0.22810485  0.90573366  0.06962316     0.07800
C928        C  0.25041212  0.88656490  0.12608106    -0.11300
C929        C  0.25169031  0.86229991  0.14570723    -0.10600
C930        C  0.27665105  0.84448857  0.14722060    -0.01500
C931        C  0.30066507  0.85201999  0.12962723    -0.11700
C932        C  0.29931402  0.87615972  0.10987561    -0.10100
H933        H  0.23079720  0.89970040  0.12500394     0.07800
H934        H  0.23293803  0.85718391  0.15927636     0.11500
H935        H  0.32013219  0.83862930  0.13022674     0.11200
H936        H  0.31768367  0.88059055  0.09547564     0.07800
C937        C  0.14097502  0.71203477  0.12739561    -0.11300
C938        C  0.14311982  0.72947089  0.10085300     0.05800
C939        C  0.16457032  0.75108962  0.09975889    -0.10100
C940        C  0.18291622  0.75580454  0.12513765    -0.11700
C941        C  0.17997632  0.73914874  0.15220238    -0.01500
C942        C  0.15914662  0.71684743  0.15280253    -0.10600
C943        C  0.12171125  0.72636776  0.07539762     0.05800
H944        H  0.16686422  0.76462674  0.07941748     0.07700
H945        H  0.19883163  0.77304559  0.12385860     0.11200
H946        H  0.15640763  0.70348138  0.17319450     0.11500
H947        H  0.12446936  0.69541372  0.12899000     0.07800
C948        C  0.11284482  0.69837937  0.06526975    -0.11300
C949        C  0.09086692  0.69561011  0.04307004    -0.10600
C950        C  0.07728208  0.72079140  0.03066792    -0.01500
C951        C  0.08666452  0.74877755  0.04031609    -0.11700
C952        C  0.10863496  0.75152466  0.06241847    -0.10100
H953        H  0.12277254  0.67863278  0.07472903     0.07800
H954        H  0.08429672  0.67376740  0.03590860     0.11500
H955        H  0.07669288  0.76864669  0.03119551     0.11200
H956        H  0.11475940  0.77335905  0.07008784     0.07800
C957        C  0.75576518  0.64810667  0.32310022    -0.11300
C958        C  0.77287226  0.62254223  0.31957482     0.05800
C959        C  0.78809940  0.61874140  0.29192898    -0.10100
C960        C  0.78531516  0.63928813  0.26794831    -0.11700
C961        C  0.76737233  0.66435298  0.27100573    -0.01500
C962        C  0.75312558  0.66878036  0.29920268    -0.10600
C963        C  0.77381315  0.59932836  0.34399509     0.05800
H964        H  0.80131740  0.59924707  0.28833586     0.07700
H965        H  0.79659914  0.63502911  0.24661883     0.11200
H966        H  0.73911362  0.68774602  0.30247718     0.11500
H967        H  0.74408030  0.65193797  0.34426298     0.07800
C968        C  0.79982434  0.58491685  0.35207772    -0.11300
C969        C  0.80043044  0.56267508  0.37450924    -0.10600
C970        C  0.77498894  0.55403961  0.38925098    -0.01500
C971        C  0.74898061  0.56840959  0.38108196    -0.11700
C972        C  0.74842695  0.59081086  0.35887071    -0.10100
H973        H  0.81979446  0.59103689  0.34122837     0.07800
H974        H  0.82086101  0.55214233  0.38019702     0.11500
H975        H  0.72896666  0.56237318  0.39189122     0.11200
H976        H  0.72795711  0.60112304  0.35290182     0.07800
C977        C  0.63417206  0.74796574  0.31628070    -0.11300
C978        C  0.61764560  0.77401118  0.31789655     0.05800
C979        C  0.62404110  0.79749466  0.29815544    -0.10100
C980        C  0.64724290  0.79539635  0.27805517    -0.11700
C981        C  0.66421757  0.76964636  0.27712579    -0.01500
C982        C  0.65711725  0.74574709  0.29598193    -0.10600
C983        C  0.59487027  0.77712468  0.34127221     0.05800
H984        H  0.61130242  0.81761983  0.29848816     0.07700
H985        H  0.65208699  0.81403330  0.26354152     0.11200
H986        H  0.66988123  0.72562044  0.29583211     0.11500
H987        H  0.63008192  0.72964959  0.33150058     0.07800
C988        C  0.57758315  0.75302648  0.34879862    -0.11300
C989        C  0.55751681  0.75542744  0.37235279    -0.10600
C990        C  0.55413006  0.78206785  0.38858144    -0.01500
C991        C  0.57089273  0.80637111  0.38062670    -0.11700
C992        C  0.59120343  0.80387256  0.35729596    -0.10100
H993        H  0.57958528  0.73228592  0.33651265     0.07800
H994        H  0.54463875  0.73641126  0.37782328     0.11500
H995        H  0.56879137  0.82711715  0.39289459     0.11200
H996        H  0.60458266  0.82266073  0.35241530     0.07800
C997        C  0.62898017  0.65040488  0.19774823    -0.11300
C998        C  0.63104910  0.62518789  0.17893590     0.05800
C999        C  0.65612376  0.62063253  0.16161778    -0.10100
C1000       C  0.67918055  0.64020930  0.16409543    -0.11700
C1001       C  0.67757092  0.66493189  0.18376661    -0.01500
C1002       C  0.65190409  0.67012199  0.20004004    -0.10600
C1003       C  0.60792568  0.60278434  0.17890240     0.05800
H1004       H  0.65835101  0.60128053  0.14708146     0.07700
H1005       H  0.69854641  0.63554080  0.15116403     0.11200
H1006       H  0.64979876  0.68896625  0.21531180     0.11500
H1007       H  0.60975070  0.65461351  0.21108243     0.07800
C1008       C  0.59650567  0.59316959  0.20695429    -0.11300
C1009       C  0.57558998  0.57123776  0.20736391    -0.10600
C1010       C  0.56538351  0.55851418  0.17969299    -0.01500
C1011       C  0.57663364  0.56831822  0.15155554    -0.11700
C1012       C  0.59781204  0.59012635  0.15118433    -0.10100
H1013       H  0.60418710  0.60224581  0.22868705     0.07800
H1014       H  0.56741826  0.56425918  0.22944948     0.11500
H1015       H  0.56918186  0.55905445  0.12982889     0.11200
H1016       H  0.60619236  0.59723131  0.12923335     0.07800
C1017       C  0.91986524  0.69524316  0.06883269    -0.11300
C1018       C  0.91515083  0.72144967  0.08540828     0.05800
C1019       C  0.93138373  0.74651103  0.07826519    -0.10100
C1020       C  0.95115981  0.74561647  0.05425510    -0.11700
C1021       C  0.95537155  0.71949951  0.03743520    -0.01500
C1022       C  0.93990550  0.69423489  0.04524021    -0.10600
C1023       C  0.89166156  0.72317947  0.10811990     0.05800
H1024       H  0.92859327  0.76689576  0.09101837     0.07700
H1025       H  0.96320460  0.76524430  0.04894684     0.11200
H1026       H  0.94273168  0.67380708  0.03254814     0.11500
H1027       H  0.90733653  0.67574907  0.07327811     0.07800
C1028       C  0.87430091  0.74861439  0.10957983    -0.11300
C1029       C  0.85040805  0.74954730  0.12856296    -0.10600
C1030       C  0.84304873  0.72493144  0.14625755    -0.01500
C1031       C  0.86065133  0.69963583  0.14543718    -0.11700
C1032       C  0.88492787  0.69884702  0.12666537    -0.10100
H1033       H  0.87844662  0.76747622  0.09513364     0.07800
H1034       H  0.83714572  0.76934025  0.12857140     0.11500
H1035       H  0.85556750  0.68047721  0.15908600     0.11200
H1036       H  0.89819727  0.67908125  0.12636974     0.07800
C1037       C  0.71776791  0.87027239  0.12202319    -0.11300
C1038       C  0.73544211  0.86665942  0.09604812     0.05800
C1039       C  0.75453849  0.84235210  0.09535953    -0.10100
C1040       C  0.75663690  0.82286629  0.12035912    -0.11700
C1041       C  0.73977671  0.82716504  0.14688136    -0.01500
C1042       C  0.71994123  0.85085072  0.14709774    -0.10600
C1043       C  0.73476806  0.88874058  0.07040899     0.05800
H1044       H  0.76812515  0.83852170  0.07555571     0.07700
H1045       H  0.77216225  0.80491046  0.11923770     0.11200
H1046       H  0.70665762  0.85496113  0.16707982     0.11500
H1047       H  0.70298032  0.88882187  0.12353254     0.07800
C1048       C  0.70864960  0.90181377  0.06031859    -0.11300
C1049       C  0.70823581  0.92296434  0.03673137    -0.10600
C1050       C  0.73395115  0.93175654  0.02270186    -0.01500
C1051       C  0.76005849  0.91873192  0.03283873    -0.11700
C1052       C  0.76045285  0.89750122  0.05626337    -0.10100
H1053       H  0.68842355  0.89545981  0.07044702     0.07800
H1054       H  0.68773821  0.93248037  0.02953274     0.11500
H1055       H  0.78031101  0.92493056  0.02264494     0.11200
H1056       H  0.78102794  0.88834297  0.06370938     0.07800
C1057       C  0.63658810  0.19278766  0.31322045    -0.11300
C1058       C  0.62046677  0.21816294  0.32089865     0.05800
C1059       C  0.62615365  0.24447245  0.30495781    -0.10100
C1060       C  0.64786534  0.24555077  0.28273525    -0.11700
C1061       C  0.66421871  0.22024948  0.27552103    -0.01500
C1062       C  0.65800475  0.19378312  0.29076536    -0.10600
C1063       C  0.59851714  0.21735184  0.34599486     0.05800
H1064       H  0.61384470  0.26434975  0.30963108     0.07700
H1065       H  0.65194875  0.26626129  0.27132780     0.11200
H1066       H  0.67031183  0.17390037  0.28601761     0.11500
H1067       H  0.63333100  0.17223674  0.32520709     0.07800
C1068       C  0.58229697  0.19181059  0.35144560    -0.11300
C1069       C  0.56229513  0.19097081  0.37545921    -0.10600
C1070       C  0.55767524  0.21577128  0.39437170    -0.01500
C1071       C  0.57370992  0.24130133  0.38889557    -0.11700
C1072       C  0.59397634  0.24201591  0.36523304    -0.10100
H1073       H  0.58471509  0.17251526  0.33689532     0.07800
H1074       H  0.55002305  0.17108640  0.37882062     0.11500
H1075       H  0.57077138  0.26076048  0.40312823     0.11200
H1076       H  0.60639133  0.26186084  0.36237497     0.07800
C1077       C  0.74903399  0.34092080  0.31303682    -0.11300
C1078       C  0.76953854  0.36351213  0.31221889     0.05800
C1079       C  0.78784313  0.36495389  0.28658107    -0.10100
C1080       C  0.78502093  0.34491421  0.26195843    -0.11700
C1081       C  0.76394249  0.32280282  0.26245901    -0.01500
C1082       C  0.74630660  0.32084986  0.28857849    -0.10600
C1083       C  0.77115508  0.38582960  0.33766012     0.05800
H1084       H  0.80373808  0.38218464  0.28507006     0.07700
H1085       H  0.79889627  0.34721088  0.24220197     0.11200
H1086       H  0.72980317  0.30419896  0.28986721     0.11500
H1087       H  0.73492970  0.33879813  0.33262652     0.07800
C1088       C  0.74579538  0.39702277  0.35107541    -0.11300
C1089       C  0.74707325  0.41786846  0.37497509    -0.10600
C1090       C  0.77375868  0.42813883  0.38620133    -0.01500
C1091       C  0.79915162  0.41700892  0.37278774    -0.11700
C1092       C  0.79786227  0.39617693  0.34876845    -0.10100
H1093       H  0.72483789  0.38995372  0.34279178     0.07800
H1094       H  0.72705742  0.42601609  0.38458847     0.11500
H1095       H  0.82007367  0.42441928  0.38082141     0.11200
H1096       H  0.81781469  0.38785571  0.33917437     0.07800
C1097       C  0.59382076  0.39877581  0.15176088    -0.11300
C1098       C  0.60510031  0.38713844  0.17934043     0.05800
C1099       C  0.59480098  0.39757227  0.20772326    -0.10100
C1100       C  0.57385724  0.41982028  0.20851333    -0.11700
C1101       C  0.56276173  0.43178099  0.18089809    -0.01500
C1102       C  0.57271681  0.42082177  0.15251345    -0.10600
C1103       C  0.62835526  0.36490607  0.17853990     0.05800
H1104       H  0.60345442  0.38897737  0.22926152     0.07700
H1105       H  0.56653157  0.42777549  0.23071871     0.11200
H1106       H  0.56447028  0.42950802  0.13085121     0.11500
H1107       H  0.60139821  0.39081248  0.12964847     0.07800
C1108       C  0.62656118  0.33923661  0.19625492    -0.11300
C1109       C  0.64926666  0.31888075  0.19658091    -0.10600
C1110       C  0.67429322  0.32411914  0.17951484    -0.01500
C1111       C  0.67579736  0.34962586  0.16137753    -0.11700
C1112       C  0.65291829  0.36977504  0.16076361    -0.10100
H1113       H  0.60766578  0.33506318  0.20997037     0.07800
H1114       H  0.64756062  0.29949960  0.21093201     0.11500
H1115       H  0.69481033  0.35423244  0.14802183     0.11200
H1116       H  0.65473349  0.38960205  0.14711244     0.07800
C1117       C  0.70594712  0.08788857  0.05533932    -0.11300
C1118       C  0.73141046  0.10256864  0.06400488     0.05800
C1119       C  0.75716359  0.09482811  0.04894388    -0.10100
C1120       C  0.75752874  0.07284431  0.02618917    -0.11700
C1121       C  0.73216116  0.05796538  0.01782118    -0.01500
C1122       C  0.70631197  0.06590800  0.03250190    -0.10600
C1123       C  0.73153645  0.12503702  0.08935800     0.05800
H1124       H  0.77731664  0.10518981  0.05530843     0.07700
H1125       H  0.77780489  0.06732123  0.01533511     0.11200
H1126       H  0.68636412  0.05491021  0.02658146     0.11500
H1127       H  0.68565242  0.09346674  0.06609821     0.07800
C1128       C  0.74995951  0.14943881  0.08820700    -0.11300
C1129       C  0.75244565  0.16875457  0.11333785    -0.10600
C1130       C  0.73645297  0.16433272  0.14031114    -0.01500
C1131       C  0.71681859  0.14093214  0.14084173    -0.11700
C1132       C  0.71443940  0.12148979  0.11571562    -0.10100
H1133       H  0.76289883  0.15337855  0.06802921     0.07800
H1134       H  0.76759988  0.18669192  0.11192446     0.11500
H1135       H  0.70417533  0.13683512  0.16120766     0.11200
H1136       H  0.70015840  0.10288379  0.11760070     0.07800
C1137       C  0.87795505  0.28843478  0.10690843    -0.11300
C1138       C  0.88686084  0.26252495  0.09156997     0.05800
C1139       C  0.87215354  0.23623860  0.09755642    -0.10100
C1140       C  0.84889172  0.23599346  0.11784820    -0.11700
C1141       C  0.83954418  0.26206707  0.13252861    -0.01500
C1142       C  0.85450644  0.28824556  0.12697592    -0.10600
C1143       C  0.91077943  0.26314887  0.06879451     0.05800
H1144       H  0.87807443  0.21594421  0.08591412     0.07700
H1145       H  0.83776727  0.21544181  0.12144480     0.11200
H1146       H  0.84803725  0.30865691  0.13806814     0.11500
H1147       H  0.88911086  0.30896713  0.10340762     0.07800
C1148       C  0.91415781  0.28766221  0.04942568    -0.11300
C1149       C  0.93644315  0.28844165  0.02800272    -0.10600
C1150       C  0.95572587  0.26457294  0.02504725    -0.01500
C1151       C  0.95227289  0.23986585  0.04406096    -0.11700
C1152       C  0.93017191  0.23923350  0.06582833    -0.10100
H1153       H  0.89929743  0.30617883  0.05047370     0.07800
H1154       H  0.93832357  0.30762442  0.01339936     0.11500
H1155       H  0.96689818  0.22117949  0.04239309     0.11200
H1156       H  0.92849885  0.22013505  0.08056427     0.07800
C1157       C  0.19380061  0.40284022  0.37647604    -0.11300
C1158       C  0.22009655  0.38752119  0.37309491     0.05800
C1159       C  0.24308134  0.39378874  0.39345959    -0.10100
C1160       C  0.24041627  0.41620413  0.41535575    -0.11700
C1161       C  0.21458356  0.43243293  0.41756450    -0.01500
C1162       C  0.19099188  0.42487391  0.39870359    -0.10600
C1163       C  0.22384094  0.36623429  0.34743400     0.05800
H1164       H  0.26335032  0.38183790  0.39206190     0.07700
H1165       H  0.25889562  0.42149164  0.42981775     0.11200
H1166       H  0.17090573  0.43721482  0.39973589     0.11500
H1167       H  0.17576328  0.39894297  0.36094311     0.07800
C1168       C  0.20053271  0.34909329  0.33718820    -0.11300
C1169       C  0.20347991  0.33030985  0.31194653    -0.10600
C1170       C  0.22996567  0.32775165  0.29682533    -0.01500
C1171       C  0.25349570  0.34438842  0.30725578    -0.11700
C1172       C  0.25037949  0.36371686  0.33215020    -0.10100
H1173       H  0.18001300  0.34993748  0.34881929     0.07800
H1174       H  0.18514780  0.31726576  0.30469488     0.11500
H1175       H  0.27415937  0.34273396  0.29594008     0.11200
H1176       H  0.26861656  0.37704821  0.33899595     0.07800
C1177       C  0.40414627  0.18904314  0.35658071    -0.11300
C1178       C  0.39200488  0.21582872  0.34665709     0.05800
C1179       C  0.40203319  0.24239982  0.35924127    -0.10100
C1180       C  0.42375855  0.24226554  0.38163036    -0.11700
C1181       C  0.43576614  0.21551537  0.39196418    -0.01500
C1182       C  0.42580725  0.18886463  0.37925577    -0.10600
C1183       C  0.36935424  0.21662051  0.32266269     0.05800
H1184       H  0.39323456  0.26333663  0.35146861     0.07700
H1185       H  0.43100748  0.26314333  0.39094477     0.11200
H1186       H  0.43471142  0.16791938  0.38682465     0.11500
H1187       H  0.39664562  0.16834569  0.34704483     0.07800
C1188       C  0.37329689  0.20196614  0.29442226    -0.11300
C1189       C  0.35405544  0.20691419  0.26989000    -0.10600
C1190       C  0.33061136  0.22647528  0.27345042    -0.01500
C1191       C  0.32564910  0.23932151  0.30253234    -0.11700
C1192       C  0.34491342  0.23450759  0.32686428    -0.10100
H1193       H  0.39210927  0.18808886  0.29080681     0.07800
H1194       H  0.35832395  0.19656807  0.24780899     0.11500
H1195       H  0.30758832  0.25420147  0.30619210     0.11200
H1196       H  0.34132196  0.24563374  0.34869308     0.07800
C1197       C  0.37058732  0.35145199  0.16885805    -0.11300
C1198       C  0.37182022  0.37344493  0.19173523     0.05800
C1199       C  0.35260721  0.37222053  0.21658883    -0.10100
C1200       C  0.33286144  0.34918536  0.21868385    -0.11700
C1201       C  0.33233500  0.32674957  0.19622007    -0.01500
C1202       C  0.35120863  0.32827874  0.17118319    -0.10600
C1203       C  0.39411633  0.39660957  0.19023421     0.05800
H1204       H  0.35295322  0.38900560  0.23444287     0.07700
H1205       H  0.31861105  0.34844833  0.23829563     0.11200
H1206       H  0.35119073  0.31132787  0.15349229     0.11500
H1207       H  0.38532718  0.35159441  0.14965802     0.07800
C1208       C  0.41007902  0.40436440  0.21676423    -0.11300
C1209       C  0.43252410  0.42456702  0.21496550    -0.10600
C1210       C  0.43953533  0.43745167  0.18658212    -0.01500
C1211       C  0.42323753  0.43009717  0.16013919    -0.11700
C1212       C  0.40074735  0.40990762  0.16195933    -0.10100
H1213       H  0.40573119  0.39419230  0.23877650     0.07800
H1214       H  0.44463914  0.42978831  0.23578776     0.11500
H1215       H  0.42787022  0.43991001  0.13801955     0.11200
H1216       H  0.38857885  0.40458969  0.14119993     0.07800
C1217       C  0.12995446  0.28271874  0.13467246    -0.11300
C1218       C  0.13828902  0.27145522  0.10581750     0.05800
C1219       C  0.16549267  0.25810044  0.10284984    -0.10100
C1220       C  0.18344645  0.25455411  0.12856777    -0.11700
C1221       C  0.17452325  0.26418751  0.15789860    -0.01500
C1222       C  0.14793881  0.27906557  0.16058448    -0.10600
C1223       C  0.11794651  0.27144675  0.07934444     0.05800
H1224       H  0.17254686  0.24969044  0.08070998     0.07700
H1225       H  0.20396000  0.24332994  0.12557539     0.11200
H1226       H  0.14051285  0.28674754  0.18285201     0.11500
H1227       H  0.10897850  0.29303831  0.13745890     0.07800
C1228       C  0.11372854  0.24541429  0.06229500    -0.11300
C1229       C  0.09392838  0.24472624  0.03783595    -0.10600
C1230       C  0.07812869  0.27014592  0.02977127    -0.01500
C1231       C  0.08260239  0.29632373  0.04660897    -0.11700
C1232       C  0.10222382  0.29690778  0.07135180    -0.10100
H1233       H  0.12536995  0.22539000  0.06830948     0.07800
H1234       H  0.09094506  0.22425174  0.02530798     0.11500
H1235       H  0.07064215  0.31624156  0.04095944     0.11200
H1236       H  0.10523093  0.31723045  0.08414909     0.07800
C1237       C  0.29365760  0.10838825  0.03479776    -0.11300
C1238       C  0.26925137  0.11168254  0.05344018     0.05800
C1239       C  0.24414501  0.09597738  0.04589262    -0.10100
C1240       C  0.24385174  0.07644400  0.02104644    -0.11700
C1241       C  0.26882052  0.07182667  0.00365479    -0.01500
C1242       C  0.29350094  0.08847624  0.01021081    -0.10600
C1243       C  0.27007032  0.13085251  0.08109292     0.05800
H1244       H  0.22508158  0.09773274  0.05999017     0.07700
H1245       H  0.22463267  0.06361913  0.01671690     0.11200
H1246       H  0.31299643  0.08536605  0.99701386     0.11500
H1247       H  0.31305323  0.12078233  0.03955036     0.07800
C1248       C  0.29516363  0.13269939  0.09961112    -0.11300
C1249       C  0.29578936  0.15107593  0.12554796    -0.10600
C1250       C  0.27116242  0.16741083  0.13362244    -0.01500
C1251       C  0.24597305  0.16506452  0.11549003    -0.11700
C1252       C  0.24551212  0.14720753  0.08937470    -0.10100
H1253       H  0.31425669  0.11986928  0.09415468     0.07800
H1254       H  0.31545318  0.15253971  0.13921142     0.11500
H1255       H  0.22679787  0.17782381  0.12089083     0.11200
H1256       H  0.22604657  0.14672796  0.07532024     0.07800
C1257       C  0.10197136  0.90316311  0.22352183    -0.11300
C1258       C  0.11534477  0.89565068  0.25168141     0.05800
C1259       C  0.10480574  0.90778466  0.27924262    -0.10100
C1260       C  0.08124968  0.92723772  0.27857566    -0.11700
C1261       C  0.06780057  0.93465442  0.25033542    -0.01500
C1262       C  0.07843746  0.92242940  0.22284633    -0.10600
C1263       C  0.13923822  0.87396079  0.25198460     0.05800
H1264       H  0.11486951  0.90230329  0.30121112     0.07700
H1265       H  0.07368713  0.93655803  0.30010645     0.11200
H1266       H  0.06859276  0.92773467  0.20072365     0.11500
H1267       H  0.10939779  0.89365875  0.20201293     0.07800
C1268       C  0.13874632  0.84986101  0.27216436    -0.11300
C1269       C  0.15874993  0.82686981  0.26907572    -0.10600
C1270       C  0.17976545  0.82786833  0.24603221    -0.01500
C1271       C  0.18132872  0.85291625  0.22717120    -0.11700
C1272       C  0.16115234  0.87568408  0.23003200    -0.10100
H1273       H  0.12193347  0.84802842  0.28916767     0.07800
H1274       H  0.15719051  0.80790516  0.28403542     0.11500
H1275       H  0.19729228  0.85432789  0.20919886     0.11200
H1276       H  0.16210785  0.89425082  0.21444928     0.07800
C1277       C  0.90866561  0.90389994  0.21649053    -0.11300
C1278       C  0.89673920  0.89339275  0.24393916     0.05800
C1279       C  0.90724357  0.90427344  0.27232604    -0.10100
C1280       C  0.92949758  0.92496334  0.27319250    -0.11700
C1281       C  0.94153481  0.93534375  0.24566868    -0.01500
C1282       C  0.93071743  0.92464256  0.21732831    -0.10600
C1283       C  0.87331732  0.87128646  0.24261299     0.05800
H1284       H  0.89850500  0.89647032  0.29384166     0.07700
H1285       H  0.93728281  0.93279194  0.29540490     0.11200
H1286       H  0.93929641  0.93228107  0.19567393     0.11500
H1287       H  0.90068892  0.89627088  0.19427026     0.07800
C1288       C  0.84845934  0.87475829  0.26055911    -0.11300
C1289       C  0.82549647  0.85509913  0.25735344    -0.10600
C1290       C  0.82709093  0.83131308  0.23644387    -0.01500
C1291       C  0.85243168  0.82730739  0.21934884    -0.11700
C1292       C  0.87518249  0.84713849  0.22228480    -0.10100
H1293       H  0.84638655  0.89324615  0.27630492     0.07800
H1294       H  0.80634452  0.85875267  0.27096445     0.11500
H1295       H  0.85442036  0.80925887  0.20303659     0.11200
H1296       H  0.89423167  0.84371700  0.20844375     0.07800
C1297       C  0.84789105  0.11404114  0.24580010    -0.11300
C1298       C  0.87502699  0.12213323  0.23492913     0.05800
C1299       C  0.87825020  0.14939066  0.22031696    -0.10100
C1300       C  0.85457947  0.16827328  0.21645497    -0.11700
C1301       C  0.82723101  0.16002424  0.22686808    -0.01500
C1302       C  0.82415075  0.13275222  0.24167391    -0.10600
C1303       C  0.89962697  0.10155313  0.23772585     0.05800
H1304       H  0.89908869  0.15602004  0.21187523     0.07700
H1305       H  0.85763988  0.18912816  0.20494049     0.11200
H1306       H  0.80338206  0.12578364  0.24998560     0.11500
H1307       H  0.84494829  0.09293428  0.25685640     0.07800
C1308       C  0.90614202  0.08802074  0.26605787    -0.11300
C1309       C  0.92849490  0.06729741  0.26820649    -0.10600
C1310       C  0.94437313  0.05951040  0.24192772    -0.01500
C1311       C  0.93806568  0.07344603  0.21369656    -0.11700
C1312       C  0.91597195  0.09442490  0.21166615    -0.10100
H1313       H  0.89382546  0.09340116  0.28645244     0.07800
H1314       H  0.93290195  0.05690762  0.29025626     0.11500
H1315       H  0.95002794  0.06795832  0.19309664     0.11200
H1316       H  0.91110044  0.10449448  0.18954626     0.07800
C1317       C  0.10207195  0.08782715  0.27320961    -0.11300
C1318       C  0.11336989  0.09731235  0.24499575     0.05800
C1319       C  0.10235090  0.08535549  0.21736445    -0.10100
C1320       C  0.08016201  0.06478100  0.21788286    -0.11700
C1321       C  0.06850306  0.05563793  0.24605843    -0.01500
C1322       C  0.07990100  0.06717593  0.27374538    -0.10600
C1323       C  0.13543956  0.12075183  0.24423967     0.05800
H1324       H  0.11035122  0.09251567  0.19526722     0.07700
H1325       H  0.07194793  0.05626827  0.19612568     0.11200
H1326       H  0.07157888  0.06040521  0.29583693     0.11500
H1327       H  0.11036626  0.09644347  0.29488883     0.07800
C1328       C  0.13265988  0.14567344  0.26331755    -0.11300
C1329       C  0.15206337  0.16884754  0.26123614    -0.10600
C1330       C  0.17484420  0.16765861  0.24009637    -0.01500
C1331       C  0.17816921  0.14233522  0.22159999    -0.11700
C1332       C  0.15857790  0.11915774  0.22357129    -0.10100
H1333       H  0.11487117  0.14771533  0.27918141     0.07800
H1334       H  0.14884171  0.18799172  0.27585874     0.11500
H1335       H  0.19542124  0.14075734  0.20502381     0.11200
H1336       H  0.16138344  0.10007048  0.20877143     0.07800
loop_ 
_geom_bond_atom_site_label_1 
_geom_bond_atom_site_label_2 
_geom_bond_distance 
_geom_bond_site_symmetry_2 
_ccdc_geom_bond_type 
O1           Ni9   1.907       .  S
O1           C11   1.280       .  A
O2           Ni9   1.908   1_645  S
O2           C12   1.280       .  A
O3           Ni9   1.912   1_545  S
O3           C13   1.281       .  A
O4           Ni9   1.916   1_655  S
O4           C14   1.282       .  A
O5          Ni10   1.925   1_655  S
O5           C14   1.283       .  A
O6          Ni10   1.922   1_545  S
O6           C13   1.283       .  A
O7          Ni10   1.912   1_645  S
O7           C12   1.281       .  A
O8          Ni10   1.913       .  S
O8           C11   1.281       .  A
Ni9         Ni10   2.387       .  S
C11        C1261   1.474       .  S
C12        C1310   1.472       .  S
C13        C1321   1.481       .  S
C14        C1281   1.485       .  S
O15         Ni21   1.917       .  S
O15          C36   1.268       .  A
O16         Ni39   1.878       .  S
O16          C25   1.261       .  A
O17         Ni21   1.919       .  S
O17         Ni39   1.894       .  S
O17         Ni33   1.911       .  S
O17          H40   0.966       .  S
C18          O35   1.271       .  A
C18          O27   1.274       .  A
C18        C1201   1.477       .  S
O19         Ni38   1.931       .  S
O19          C25   1.270       .  A
O20         Ni38   1.904       .  S
O20          C22   1.269       .  A
Ni21         O24   1.920       .  S
Ni21         O26   1.911       .  S
C22          O32   1.270       .  A
C22        C1190   1.473       .  S
O23         Ni39   1.918       .  S
O23          C29   1.275       .  A
O24          C29   1.275       .  A
C25        C1250   1.467       .  S
O26          C28   1.267       .  A
O27         Ni38   1.926       .  S
C28          O34   1.265       .  A
C28        C1221   1.477       .  S
C29        C1330   1.483       .  S
H30          O31   0.966       .  S
O31         Ni39   1.917       .  S
O31         Ni33   1.908       .  S
O31         Ni38   1.923       .  S
O32         Ni33   1.912       .  S
Ni33         O37   1.896       .  S
Ni33         O35   1.908       .  S
O34         Ni39   1.904       .  S
C36          O37   1.264       .  A
C36        C1170   1.467       .  S
O41         Ni47   1.933       .  S
O41          C62   1.272       .  A
O42         Ni65   1.899       .  S
O42          C51   1.264       .  A
O43         Ni47   1.926       .  S
O43         Ni65   1.910       .  S
O43         Ni59   1.903       .  S
O43          H66   0.970       .  S
C44          O61   1.268       .  A
C44          O53   1.275       .  A
C44        C1110   1.472       .  S
O45         Ni64   1.944       .  S
O45          C51   1.274       .  A
O46         Ni64   1.915       .  S
O46          C48   1.272       .  A
Ni47         O50   1.929       .  S
Ni47         O52   1.915       .  S
C48          O58   1.275       .  A
C48        C1081   1.491       .  S
O49         Ni65   1.893       .  S
O49          C55   1.268       .  A
O50          C55   1.274       .  A
C51        C1141   1.487       .  S
O52          C54   1.271       .  A
O53         Ni64   1.929       .  S
C54          O60   1.273       .  A
C54        C1130   1.488       .  S
C55        C1301   1.474       .  S
H56          O57   0.963       .  S
O57         Ni65   1.904       .  S
O57         Ni59   1.916       .  S
O57         Ni64   1.928       .  S
O58         Ni59   1.935       .  S
Ni59         O63   1.911       .  S
Ni59         O61   1.891       .  S
O60         Ni65   1.932       .  S
C62          O63   1.268       .  A
C62        C1061   1.489       .  S
O67         Ni73   1.940       .  S
O67          C88   1.274       .  A
O68         Ni91   1.882       .  S
O68          C77   1.264       .  A
O69         Ni73   1.916       .  S
O69         Ni91   1.896       .  S
O69         Ni85   1.909       .  S
O69          H92   0.966       .  S
C70          O87   1.275       .  A
C70          O79   1.279       .  A
C70        C1290   1.486       .  S
O71         Ni90   1.938       .  S
O71          C77   1.275       .  A
O72         Ni90   1.919       .  S
O72          C74   1.271       .  A
Ni73         O76   1.932       .  S
Ni73         O78   1.915       .  S
C74          O84   1.271       .  A
C74        C1041   1.495       .  S
O75         Ni91   1.913       .  S
O75          C81   1.274       .  A
O76          C81   1.278       .  A
C77         C981   1.471       .  S
O78          C80   1.271       .  A
O79         Ni90   1.936       .  S
C80          O86   1.275       .  A
C80         C961   1.494       .  S
C81        C1001   1.487       .  S
H82          O83   0.967       .  S
O83         Ni91   1.906       .  S
O83         Ni85   1.891       .  S
O83         Ni90   1.915       .  S
O84         Ni85   1.930       .  S
Ni85         O89   1.876       .  S
Ni85         O87   1.912       .  S
O86         Ni91   1.936       .  S
C88          O89   1.261       .  A
C88        C1030   1.470       .  S
O93         Ni99   1.929       .  S
O93         C114   1.273       .  A
O94        Ni117   1.886       .  S
O94         C103   1.260       .  A
O95         Ni99   1.917       .  S
O95        Ni117   1.901       .  S
O95        Ni111   1.909       .  S
O95         H118   0.966       .  S
C96         O113   1.269       .  A
C96         O105   1.275       .  A
C96        C1270   1.474       .  S
O97        Ni116   1.930       .  S
O97         C103   1.270       .  A
O98        Ni116   1.900       .  S
O98         C100   1.267       .  A
Ni99        O102   1.939       .  S
Ni99        O104   1.908       .  S
C100        O110   1.271       .  A
C100        C941   1.481       .  S
O101       Ni117   1.886       .  S
O101        C107   1.264       .  A
O102        C107   1.275       .  A
C103        C881   1.466       .  S
O104        C106   1.269       .  A
O105       Ni116   1.925       .  S
C106        O112   1.274       .  A
C106        C870   1.475       .  S
C107        C901   1.472       .  S
H108        O109   0.966       .  S
O109       Ni117   1.897       .  S
O109       Ni111   1.901       .  S
O109       Ni116   1.918       .  S
O110       Ni111   1.926       .  S
Ni111       O115   1.883       .  S
Ni111       O113   1.897       .  S
O112       Ni117   1.937       .  S
C114        O115   1.264       .  A
C114        C930   1.473       .  S
O119       Ni127   1.907       .  S
O119        C129   1.279       .  A
O120       Ni127   1.905   1_545  S
O120        C130   1.280       .  A
O121       Ni127   1.910       .  S
O121        C131   1.281   1_556  A
O122       Ni127   1.916   1_545  S
O122        C132   1.281       .  A
O123       Ni128   1.909   1_545  S
O123        C132   1.281       .  A
O124       Ni128   1.910       .  S
O124        C131   1.280   1_556  A
O125       Ni128   1.905   1_545  S
O125        C130   1.280       .  A
O126       Ni128   1.904       .  S
O126        C129   1.280       .  A
Ni127      Ni128   2.390       .  S
C129        C850   1.464       .  S
C130       C1241   1.466   1_556  S
C131        C921   1.471       .  S
C132        C821   1.475       .  S
O133       Ni141   1.921   1_655  S
O133        C143   1.283   1_556  A
O134       Ni141   1.923       .  S
O134        C144   1.283       .  A
O135       Ni141   1.906   1_655  S
O135        C145   1.280       .  A
O136       Ni141   1.910       .  S
O136        C146   1.280   1_556  A
O137       Ni142   1.914       .  S
O137        C146   1.282   1_556  A
O138       Ni142   1.919   1_655  S
O138        C145   1.282       .  A
O139       Ni142   1.919       .  S
O139        C144   1.282       .  A
O140       Ni142   1.920   1_655  S
O140        C143   1.282   1_556  A
Ni141      Ni142   2.387       .  S
C143       C1150   1.482       .  S
C144        C801   1.485       .  S
C145        C781   1.475       .  S
C146       C1230   1.475       .  S
O147       Ni155   1.935   1_545  S
O147        C157   1.285       .  A
O148       Ni155   1.933       .  S
O148        C158   1.285       .  A
O149       Ni155   1.922   1_545  S
O149        C159   1.282       .  A
O150       Ni155   1.923       .  S
O150        C160   1.282       .  A
O151       Ni156   1.922       .  S
O151        C160   1.283       .  A
O152       Ni156   1.922   1_545  S
O152        C159   1.283       .  A
O153       Ni156   1.922       .  S
O153        C158   1.282       .  A
O154       Ni156   1.919   1_545  S
O154        C157   1.282       .  A
Ni155      Ni156   2.384       .  S
C157        C770   1.492       .  S
C158       C1050   1.493   1_556  S
C159       C1121   1.486   1_556  S
C160        C750   1.488       .  S
O161       Ni169   1.925   1_554  S
O161        C171   1.284       .  A
O162       Ni169   1.924   1_655  S
O162        C172   1.282       .  A
O163       Ni169   1.897       .  S
O163        C173   1.277       .  A
O164       Ni169   1.895   1_654  S
O164        C174   1.277       .  A
O165       Ni170   1.916   1_655  S
O165        C174   1.282   1_556  A
O166       Ni170   1.910       .  S
O166        C173   1.281       .  A
O167       Ni170   1.909   1_655  S
O167        C172   1.280       .  A
O168       Ni170   1.905       .  S
O168        C171   1.279   1_556  A
Ni169      Ni170   2.390       .  S
C171        C950   1.479       .  S
C172        C721   1.474       .  S
C173        C701   1.463       .  S
C174       C1021   1.467       .  S
O175       Ni181   1.936       .  S
O175        C196   1.274       .  A
O176       Ni199   1.890       .  S
O176        C185   1.264       .  A
O177       Ni181   1.914       .  S
O177       Ni199   1.897       .  S
O177       Ni193   1.902       .  S
O177        H200   0.967       .  S
C178        O195   1.273       .  A
C178        O187   1.277       .  A
C178        C710   1.469       .  S
O179       Ni198   1.926       .  S
O179        C185   1.270       .  A
O180       Ni198   1.908       .  S
O180        C182   1.268       .  A
Ni181       O184   1.932       .  S
Ni181       O186   1.916       .  S
C182        O192   1.276       .  A
C182        C690   1.497       .  S
O183       Ni199   1.880       .  S
O183        C189   1.268       .  A
O184        C189   1.278       .  A
C185        C621   1.469       .  S
O186        C188   1.271       .  A
O187       Ni198   1.920       .  S
C188        O194   1.276       .  A
C188        C661   1.499       .  S
C189        C650   1.470       .  S
H190        O191   0.967       .  S
O191       Ni199   1.891       .  S
O191       Ni193   1.892       .  S
O191       Ni198   1.907       .  S
O192       Ni193   1.950       .  S
Ni193       O197   1.883       .  S
Ni193       O195   1.896       .  S
O194       Ni199   1.943       .  S
C196        O197   1.265       .  A
C196        C841   1.469       .  S
O201       Ni209   1.920   1_655  S
O201        C211   1.282       .  A
O202       Ni209   1.919   1_545  S
O202        C212   1.283       .  A
O203       Ni209   1.925   1_645  S
O203        C213   1.283       .  A
O204       Ni209   1.926       .  S
O204        C214   1.283       .  A
O205       Ni210   1.936       .  S
O205        C214   1.285       .  A
O206       Ni210   1.936   1_645  S
O206        C213   1.285       .  A
O207       Ni210   1.906   1_545  S
O207        C212   1.279       .  A
O208       Ni210   1.908   1_655  S
O208        C211   1.280       .  A
Ni209      Ni210   2.384       .  S
C211        C561   1.479       .  S
C212        C601   1.476       .  S
C213        C581   1.496       .  S
C214        C681   1.497       .  S
O215       Ni221   1.930       .  S
O215        C236   1.270       .  A
O216       Ni239   1.892       .  S
O216        C225   1.266       .  A
O217       Ni221   1.914       .  S
O217       Ni239   1.907       .  S
O217       Ni233   1.903       .  S
O217        H240   0.967       .  S
C218        O235   1.270       .  A
C218        O227   1.277       .  A
C218        C610   1.475       .  S
O219       Ni238   1.936       .  S
O219        C225   1.273       .  A
O220       Ni238   1.913       .  S
O220        C222   1.270       .  A
Ni221       O224   1.920       .  S
Ni221       O226   1.906       .  S
C222        O232   1.273       .  A
C222        C810   1.487       .  S
O223       Ni239   1.915       .  S
O223        C229   1.275       .  A
O224        C229   1.275       .  A
C225        C530   1.475       .  S
O226        C228   1.269       .  A
O227       Ni238   1.933       .  S
C228        O234   1.275       .  A
C228        C510   1.488       .  S
C229        C550   1.482       .  S
H230        O231   0.965       .  S
O231       Ni239   1.907       .  S
O231       Ni233   1.899       .  S
O231       Ni238   1.919       .  S
O232       Ni233   1.927       .  S
Ni233       O237   1.890       .  S
Ni233       O235   1.895       .  S
O234       Ni239   1.938       .  S
C236        O237   1.264       .  A
C236        C830   1.468       .  S
O241       Ni247   1.942       .  S
O241        C262   1.277       .  A
O242       Ni265   1.884       .  S
O242        C251   1.262       .  A
O243       Ni247   1.926       .  S
O243       Ni265   1.900       .  S
O243       Ni259   1.921       .  S
O243        H266   0.966       .  S
C244        O261   1.276       .  A
C244        O253   1.277       .  A
C244        C590   1.497       .  S
O245       Ni264   1.940       .  S
O245        C251   1.273       .  A
O246       Ni264   1.912       .  S
O246        C248   1.271       .  A
Ni247       O250   1.946       .  S
Ni247       O252   1.926       .  S
C248        O258   1.276       .  A
C248        C761   1.494       .  S
O249       Ni265   1.919       .  S
O249        C255   1.274       .  A
O250        C255   1.279       .  A
C251        C461   1.473       .  S
O252        C254   1.273       .  A
O253       Ni264   1.935       .  S
C254        O260   1.272       .  A
C254        C450   1.493       .  S
C255        C490   1.497       .  S
H256        O257   0.966       .  S
O257       Ni265   1.918       .  S
O257       Ni259   1.901       .  S
O257       Ni264   1.922       .  S
O258       Ni259   1.937       .  S
Ni259       O263   1.884       .  S
Ni259       O261   1.926       .  S
O260       Ni265   1.928       .  S
C262        O263   1.265       .  A
C262        C790   1.474       .  S
O267       Ni273   1.934       .  S
O267        C288   1.272       .  A
O268       Ni291   1.892       .  S
O268        C277   1.265       .  A
O269       Ni273   1.921       .  S
O269       Ni291   1.907       .  S
O269       Ni285   1.911       .  S
O269        H292   0.967       .  S
C270        O287   1.274       .  A
C270        O279   1.276       .  A
C270        C421   1.480       .  S
O271       Ni290   1.937       .  S
O271        C277   1.273       .  A
O272       Ni290   1.917       .  S
O272        C274   1.272       .  A
Ni273       O276   1.928       .  S
Ni273       O278   1.912       .  S
C274        O284   1.275       .  A
C274        C401   1.493       .  S
O275       Ni291   1.907       .  S
O275        C281   1.273       .  A
O276        C281   1.276       .  A
C277        C730   1.481       .  S
O278        C280   1.269       .  A
O279       Ni290   1.926       .  S
C280        O286   1.272       .  A
C280        C741   1.488       .  S
C281        C570   1.480       .  S
H282        O283   0.966       .  S
O283       Ni291   1.905       .  S
O283       Ni285   1.904       .  S
O283       Ni290   1.920       .  S
O284       Ni285   1.934       .  S
Ni285       O289   1.903       .  S
Ni285       O287   1.907       .  S
O286       Ni291   1.928       .  S
C288        O289   1.267       .  A
C288        C381   1.483       .  S
O293       Ni301   1.917       .  S
O293        C303   1.281       .  A
O294       Ni301   1.915       .  S
O294        C304   1.281       .  A
O295       Ni301   1.937       .  S
O295        C305   1.286       .  A
O296       Ni301   1.935       .  S
O296        C306   1.285       .  A
O297       Ni302   1.928       .  S
O297        C306   1.284       .  A
O298       Ni302   1.928       .  S
O298        C305   1.283       .  A
O299       Ni302   1.915       .  S
O299        C304   1.281       .  A
O300       Ni302   1.915       .  S
O300        C303   1.281       .  A
Ni301      Ni302   2.384       .  S
C303        C541   1.479       .  S
C304        C430   1.479       .  S
C305        C670   1.498       .  S
C306        C481   1.497       .  S
O307       Ni315   1.906       .  S
O307        C317   1.280       .  A
O308       Ni315   1.903       .  S
O308        C318   1.279       .  A
O309       Ni315   1.924       .  S
O309        C319   1.283       .  A
O310       Ni315   1.923       .  S
O310        C320   1.283       .  A
O311       Ni316   1.910       .  S
O311        C320   1.280       .  A
O312       Ni316   1.916       .  S
O312        C319   1.282       .  A
O313       Ni316   1.909       .  S
O313        C318   1.280       .  A
O314       Ni316   1.911       .  S
O314        C317   1.281       .  A
Ni315      Ni316   2.388       .  S
C317       C1101   1.472       .  S
C318        C910   1.464       .  S
C319       C1010   1.485       .  S
C320       C1210   1.480       .  S
O321       Ni329   1.928       .  S
O321        C331   1.284       .  A
O322       Ni329   1.928       .  S
O322        C332   1.283       .  A
O323       Ni329   1.923       .  S
O323        C333   1.283       .  A
O324       Ni329   1.920       .  S
O324        C334   1.282       .  A
O325       Ni330   1.930       .  S
O325        C334   1.284       .  A
O326       Ni330   1.925       .  S
O326        C333   1.283       .  A
O327       Ni330   1.927       .  S
O327        C332   1.282       .  A
O328       Ni330   1.927       .  S
O328        C331   1.283       .  A
Ni329      Ni330   2.384       .  S
C331        C970   1.493       .  S
C332        C441   1.481       .  S
C333        C410   1.490       .  S
C334       C1090   1.490       .  S
O335       Ni343   1.909       .  S
O335        C345   1.280       .  A
O336       Ni343   1.906       .  S
O336        C346   1.279       .  A
O337       Ni343   1.901       .  S
O337        C347   1.279       .  A
O338       Ni343   1.897       .  S
O338        C348   1.279       .  A
O339       Ni344   1.909       .  S
O339        C348   1.280       .  A
O340       Ni344   1.912       .  S
O340        C347   1.281       .  A
O341       Ni344   1.923       .  S
O341        C346   1.282       .  A
O342       Ni344   1.925       .  S
O342        C345   1.282       .  A
Ni343      Ni344   2.390       .  S
C345        C390   1.473       .  S
C346        C861   1.469       .  S
C347        C990   1.469       .  S
C348        C641   1.466       .  S
O349       Ni357   1.900       .  S
O349        C359   1.278       .  A
O350       Ni357   1.901       .  S
O350        C360   1.279       .  A
O351       Ni357   1.906       .  S
O351        C361   1.280       .  A
O352       Ni357   1.902       .  S
O352        C362   1.279       .  A
O353       Ni358   1.910       .  S
O353        C362   1.281       .  A
O354       Ni358   1.912       .  S
O354        C361   1.281       .  A
O355       Ni358   1.915       .  S
O355        C360   1.281       .  A
O356       Ni358   1.909       .  S
O356        C359   1.281       .  A
Ni357      Ni358   2.390       .  S
C359       C1161   1.467       .  S
C360        C630   1.466       .  S
C361        C521   1.472       .  S
C362        C890   1.466       .  S
O363       Ni371   1.914       .  S
O363        C373   1.281       .  A
O364       Ni371   1.916       .  S
O364        C374   1.281       .  A
O365       Ni371   1.905       .  S
O365        C375   1.280       .  A
O366       Ni371   1.908       .  S
O366        C376   1.280       .  A
O367       Ni372   1.915       .  S
O367        C376   1.281       .  A
O368       Ni372   1.907       .  S
O368        C375   1.279       .  A
O369       Ni372   1.931       .  S
O369        C374   1.284       .  A
O370       Ni372   1.932       .  S
O370        C373   1.285       .  A
Ni371      Ni372   2.387       .  S
C373        C501   1.488       .  S
C374       C1070   1.486       .  S
C375       C1181   1.470       .  S
C376        C470   1.474       .  S
C377        C378   1.406       .  A
C377        C382   1.398       .  A
C377        H387   1.082       .  S
C378        C383   1.492       .  S
C378        C379   1.409       .  A
C379        C380   1.398       .  A
C379        H384   1.082       .  S
C380        C381   1.404       .  A
C380        H385   1.083       .  S
C381        C382   1.406       .  A
C382        H386   1.083       .  S
C383        C388   1.410       .  A
C383        C392   1.407       .  A
C388        C389   1.401       .  A
C388        H393   1.082       .  S
C389        C390   1.403       .  A
C389        H394   1.083       .  S
C390        C391   1.401       .  A
C391        C392   1.395       .  A
C391        H395   1.083       .  S
C392        H396   1.082       .  S
C397        C398   1.406       .  A
C397        C402   1.404       .  A
C397        H407   1.083       .  S
C398        C403   1.490       .  S
C398        C399   1.405       .  A
C399        C400   1.400       .  A
C399        H404   1.083       .  S
C400        C401   1.408       .  A
C400        H405   1.083       .  S
C401        C402   1.409       .  A
C402        H406   1.083       .  S
C403        C408   1.406       .  A
C403        C412   1.406       .  A
C408        C409   1.404       .  A
C408        H413   1.083       .  S
C409        C410   1.409       .  A
C409        H414   1.083       .  S
C410        C411   1.407       .  A
C411        C412   1.400       .  A
C411        H415   1.083       .  S
C412        H416   1.083       .  S
C417        C418   1.404       .  A
C417        C422   1.397       .  A
C417        H427   1.083       .  S
C418        C423   1.481       .  S
C418        C419   1.405       .  A
C419        C420   1.396       .  A
C419        H424   1.083       .  S
C420        C421   1.405       .  A
C420        H425   1.083       .  S
C421        C422   1.407       .  A
C422        H426   1.083       .  S
C423        C428   1.404       .  A
C423        C432   1.405       .  A
C428        C429   1.396       .  A
C428        H433   1.083       .  S
C429        C430   1.405       .  A
C429        H434   1.083       .  S
C430        C431   1.406       .  A
C431        C432   1.397       .  A
C431        H435   1.083       .  S
C432        H436   1.083       .  S
C437        C438   1.413       .  A
C437        C442   1.403       .  A
C437        H447   1.081       .  S
C438        C443   1.507       .  S
C438        C439   1.412       .  A
C439        C440   1.403       .  A
C439        H444   1.081       .  S
C440        C441   1.402       .  A
C440        H445   1.083       .  S
C441        C442   1.401       .  A
C442        H446   1.083       .  S
C443        C448   1.409       .  A
C443        C452   1.413       .  A
C448        C449   1.399       .  A
C448        H453   1.081       .  S
C449        C450   1.408       .  A
C449        H454   1.083       .  S
C450        C451   1.405       .  A
C451        C452   1.407       .  A
C451        H455   1.083       .  S
C452        H456   1.081       .  S
C457        C458   1.407       .  A
C457        C462   1.398       .  A
C457        H467   1.082       .  S
C458        C463   1.483       .  S
C458        C459   1.405       .  A
C459        C460   1.392       .  A
C459        H464   1.083       .  S
C460        C461   1.405       .  A
C460        H465   1.083       .  S
C461        C462   1.403       .  A
C462        H466   1.083       .  S
C463        C468   1.406       .  A
C463        C472   1.406       .  A
C468        C469   1.396       .  A
C468        H473   1.082       .  S
C469        C470   1.404       .  A
C469        H474   1.083       .  S
C470        C471   1.404       .  A
C471        C472   1.394       .  A
C471        H475   1.083       .  S
C472        H476   1.083       .  S
C477        C478   1.407       .  A
C477        C482   1.404       .  A
C477        H487   1.083       .  S
C478        C483   1.499       .  S
C478        C479   1.408       .  A
C479        C480   1.407       .  A
C479        H484   1.083       .  S
C480        C481   1.409       .  A
C480        H485   1.083       .  S
C481        C482   1.408       .  A
C482        H486   1.083       .  S
C483        C488   1.408       .  A
C483        C492   1.407       .  A
C488        C489   1.405       .  A
C488        H493   1.083       .  S
C489        C490   1.408       .  A
C489        H494   1.083       .  S
C490        C491   1.409       .  A
C491        C492   1.405       .  A
C491        H495   1.083       .  S
C492        H496   1.083       .  S
C497        C498   1.405       .  A
C497        C502   1.397       .  A
C497        H507   1.083       .  S
C498        C503   1.491       .  S
C498        C499   1.408       .  A
C499        C500   1.404       .  A
C499        H504   1.083       .  S
C500        C501   1.407       .  A
C500        H505   1.083       .  S
C501        C502   1.407       .  A
C502        H506   1.083       .  S
C503        C508   1.404       .  A
C503        C512   1.408       .  A
C508        C509   1.398       .  A
C508        H513   1.083       .  S
C509        C510   1.408       .  A
C509        H514   1.083       .  S
C510        C511   1.407       .  A
C511        C512   1.402       .  A
C511        H515   1.083       .  S
C512        H516   1.083       .  S
C517        C518   1.405       .  A
C517        C522   1.393       .  A
C517        H527   1.083       .  S
C518        C523   1.480       .  S
C518        C519   1.405       .  A
C519        C520   1.396       .  A
C519        H524   1.083       .  S
C520        C521   1.405       .  A
C520        H525   1.083       .  S
C521        C522   1.403       .  A
C522        H526   1.083       .  S
C523        C528   1.405       .  A
C523        C532   1.405       .  A
C528        C529   1.391       .  A
C528        H533   1.083       .  S
C529        C530   1.403       .  A
C529        H534   1.083       .  S
C530        C531   1.406       .  A
C531        C532   1.398       .  A
C531        H535   1.083       .  S
C532        H536   1.083       .  S
C537        C538   1.406       .  A
C537        C542   1.399       .  A
C537        H547   1.083       .  S
C538        C543   1.483       .  S
C538        C539   1.404       .  A
C539        C540   1.396       .  A
C539        H544   1.083       .  S
C540        C541   1.405       .  A
C540        H545   1.083       .  S
C541        C542   1.406       .  A
C542        H546   1.083       .  S
C543        C548   1.403       .  A
C543        C552   1.407       .  A
C548        C549   1.395       .  A
C548        H553   1.083       .  S
C549        C550   1.408       .  A
C549        H554   1.083       .  S
C550        C551   1.405       .  A
C551        C552   1.400       .  A
C551        H555   1.083       .  S
C552        H556   1.083       .  S
C557        C558   1.405       .  A
C557        C562   1.399       .  A
C557        H567   1.083       .  S
C558        C563   1.479       .  S
C558        C559   1.402       .  A
C559        C560   1.394       .  A
C559        H564   1.083       .  S
C560        C561   1.406       .  A
C560        H565   1.083       .  S
C561        C562   1.406       .  A
C562        H566   1.083       .  S
C563        C568   1.403       .  A
C563        C572   1.404       .  A
C568        C569   1.398       .  A
C568        H573   1.083       .  S
C569        C570   1.407       .  A
C569        H574   1.083       .  S
C570        C571   1.405       .  A
C571        C572   1.396       .  A
C571        H575   1.083       .  S
C572        H576   1.083       .  S
C577        C578   1.406       .  A
C577        C582   1.403       .  A
C577        H587   1.083       .  S
C578        C583   1.496       .  S
C578        C579   1.407       .  A
C579        C580   1.406       .  A
C579        H584   1.083       .  S
C580        C581   1.408       .  A
C580        H585   1.083       .  S
C581        C582   1.409       .  A
C582        H586   1.083       .  S
C583        C588   1.408       .  A
C583        C592   1.406       .  A
C588        C589   1.405       .  A
C588        H593   1.083       .  S
C589        C590   1.409       .  A
C589        H594   1.083       .  S
C590        C591   1.409       .  A
C591        C592   1.404       .  A
C591        H595   1.083       .  S
C592        H596   1.083       .  S
C597        C598   1.405       .  A
C597        C602   1.395       .  A
C597        H607   1.083       .  S
C598        C603   1.477       .  S
C598        C599   1.402       .  A
C599        C600   1.396       .  A
C599        H604   1.083       .  S
C600        C601   1.407       .  A
C600        H605   1.083       .  S
C601        C602   1.404       .  A
C602        H606   1.083       .  S
C603        C608   1.406       .  A
C603        C612   1.402       .  A
C608        C609   1.399       .  A
C608        H613   1.083       .  S
C609        C610   1.404       .  A
C609        H614   1.083       .  S
C610        C611   1.406       .  A
C611        C612   1.392       .  A
C611        H615   1.082       .  S
C612        H616   1.083       .  S
C617        C618   1.406       .  A
C617        C622   1.391       .  A
C617        H627   1.083       .  S
C618        C623   1.477       .  S
C618        C619   1.404       .  A
C619        C620   1.393       .  A
C619        H624   1.083       .  S
C620        C621   1.405       .  A
C620        H625   1.083       .  S
C621        C622   1.402       .  A
C622        H626   1.083       .  S
C623        C628   1.404       .  A
C623        C632   1.407       .  A
C628        C629   1.392       .  A
C628        H633   1.083       .  S
C629        C630   1.403       .  A
C629        H634   1.083       .  S
C630        C631   1.401       .  A
C631        C632   1.394       .  A
C631        H635   1.083       .  S
C632        H636   1.083       .  S
C637        C638   1.403       .  A
C637        C642   1.396       .  A
C637        H647   1.083       .  S
C638        C643   1.470       .  S
C638        C639   1.403       .  A
C639        C640   1.386       .  A
C639        H644   1.083       .  S
C640        C641   1.402       .  A
C640        H645   1.083       .  S
C641        C642   1.405       .  A
C642        H646   1.083       .  S
C643        C648   1.405       .  A
C643        C652   1.400       .  A
C648        C649   1.396       .  A
C648        H653   1.083       .  S
C649        C650   1.403       .  A
C649        H654   1.083       .  S
C650        C651   1.406       .  A
C651        C652   1.386       .  A
C651        H655   1.083       .  S
C652        H656   1.083       .  S
C657        C658   1.409       .  A
C657        C662   1.407       .  A
C657        H667   1.083       .  S
C658        C663   1.502       .  S
C658        C659   1.407       .  A
C659        C660   1.403       .  A
C659        H664   1.083       .  S
C660        C661   1.409       .  A
C660        H665   1.083       .  S
C661        C662   1.409       .  A
C662        H666   1.083       .  S
C663        C668   1.408       .  A
C663        C672   1.409       .  A
C668        C669   1.406       .  A
C668        H673   1.083       .  S
C669        C670   1.410       .  A
C669        H674   1.083       .  S
C670        C671   1.408       .  A
C671        C672   1.405       .  A
C671        H675   1.083       .  S
C672        H676   1.083       .  S
C677        C678   1.408       .  A
C677        C682   1.404       .  A
C677        H687   1.082       .  S
C678        C683   1.504       .  S
C678        C679   1.410       .  A
C679        C680   1.406       .  A
C679        H684   1.082       .  S
C680        C681   1.407       .  A
C680        H685   1.083       .  S
C681        C682   1.408       .  A
C682        H686   1.083       .  S
C683        C688   1.411       .  A
C683        C692   1.407       .  A
C688        C689   1.408       .  A
C688        H693   1.082       .  S
C689        C690   1.407       .  A
C689        H694   1.083       .  S
C690        C691   1.409       .  A
C691        C692   1.402       .  A
C691        H695   1.083       .  S
C692        H696   1.082       .  S
C697        C698   1.402       .  A
C697        C702   1.389       .  A
C697        H707   1.083       .  S
C698        C703   1.463       .  S
C698        C699   1.400       .  A
C699        C700   1.393       .  A
C699        H704   1.083       .  S
C700        C701   1.405       .  A
C700        H705   1.083       .  S
C701        C702   1.401       .  A
C702        H706   1.083       .  S
C703        C708   1.400       .  A
C703        C712   1.401       .  A
C708        C709   1.392       .  A
C708        H713   1.083       .  S
C709        C710   1.405       .  A
C709        H714   1.083       .  S
C710        C711   1.405       .  A
C711        C712   1.390       .  A
C711        H715   1.083       .  S
C712        H716   1.083       .  S
C717        C718   1.404       .  A
C717        C722   1.392       .  A
C717        H727   1.083       .  S
C718        C723   1.482       .  S
C718        C719   1.407       .  A
C719        C720   1.403       .  A
C719        H724   1.083       .  S
C720        C721   1.405       .  A
C720        H725   1.083       .  S
C721        C722   1.402       .  A
C722        H726   1.083       .  S
C723        C728   1.403       .  A
C723        C732   1.406       .  A
C728        C729   1.392       .  A
C728        H733   1.083       .  S
C729        C730   1.405       .  A
C729        H734   1.083       .  S
C730        C731   1.407       .  A
C731        C732   1.402       .  A
C731        H735   1.083       .  S
C732        H736   1.083       .  S
C737        C738   1.406       .  A
C737        C742   1.399       .  A
C737        H747   1.083       .  S
C738        C743   1.491       .  S
C738        C739   1.407       .  A
C739        C740   1.403       .  A
C739        H744   1.083       .  S
C740        C741   1.408       .  A
C740        H745   1.083       .  S
C741        C742   1.407       .  A
C742        H746   1.083       .  S
C743        C748   1.406       .  A
C743        C752   1.406       .  A
C748        C749   1.403       .  A
C748        H753   1.083       .  S
C749        C750   1.408       .  A
C749        H754   1.083       .  S
C750        C751   1.406       .  A
C751        C752   1.399       .  A
C751        H755   1.083       .  S
C752        H756   1.083       .  S
C757        C758   1.408       .  A
C757        C762   1.403       .  A
C757        H767   1.083       .  S
C758        C763   1.496       .  S
C758        C759   1.406       .  A
C759        C760   1.402       .  A
C759        H764   1.083       .  S
C760        C761   1.409       .  A
C760        H765   1.083       .  S
C761        C762   1.407       .  A
C762        H766   1.083       .  S
C763        C768   1.406       .  A
C763        C772   1.409       .  A
C768        C769   1.400       .  A
C768        H773   1.083       .  S
C769        C770   1.407       .  A
C769        H774   1.083       .  S
C770        C771   1.407       .  A
C771        C772   1.405       .  A
C771        H775   1.083       .  S
C772        H776   1.083       .  S
C777        C778   1.408       .  A
C777        C782   1.397       .  A
C777        H787   1.082       .  S
C778        C783   1.486       .  S
C778        C779   1.405       .  A
C779        C780   1.394       .  A
C779        H784   1.082       .  S
C780        C781   1.404       .  A
C780        H785   1.083       .  S
C781        C782   1.404       .  A
C782        H786   1.083       .  S
C783        C788   1.406       .  A
C783        C792   1.408       .  A
C788        C789   1.395       .  A
C788        H793   1.082       .  S
C789        C790   1.404       .  A
C789        H794   1.083       .  S
C790        C791   1.402       .  A
C791        C792   1.397       .  A
C791        H795   1.083       .  S
C792        H796   1.082       .  S
C797        C798   1.405       .  A
C797        C802   1.401       .  A
C797        H807   1.083       .  S
C798        C803   1.486       .  S
C798        C799   1.405       .  A
C799        C800   1.398       .  A
C799        H804   1.083       .  S
C800        C801   1.406       .  A
C800        H805   1.083       .  S
C801        C802   1.407       .  A
C802        H806   1.083       .  S
C803        C808   1.405       .  A
C803        C812   1.404       .  A
C808        C809   1.401       .  A
C808        H813   1.083       .  S
C809        C810   1.408       .  A
C809        H814   1.083       .  S
C810        C811   1.407       .  A
C811        C812   1.398       .  A
C811        H815   1.083       .  S
C812        H816   1.083       .  S
C817        C818   1.407       .  A
C817        C822   1.399       .  A
C817        H827   1.083       .  S
C818        C823   1.484       .  S
C818        C819   1.405       .  A
C819        C820   1.391       .  A
C819        H824   1.082       .  S
C820        C821   1.403       .  A
C820        H825   1.083       .  S
C821        C822   1.405       .  A
C822        H826   1.083       .  S
C823        C828   1.407       .  A
C823        C832   1.407       .  A
C828        C829   1.396       .  A
C828        H833   1.082       .  S
C829        C830   1.402       .  A
C829        H834   1.083       .  S
C830        C831   1.401       .  A
C831        C832   1.394       .  A
C831        H835   1.082       .  S
C832        H836   1.083       .  S
C837        C838   1.403       .  A
C837        C842   1.391       .  A
C837        H847   1.083       .  S
C838        C843   1.474       .  S
C838        C839   1.404       .  A
C839        C840   1.395       .  A
C839        H844   1.083       .  S
C840        C841   1.403       .  A
C840        H845   1.083       .  S
C841        C842   1.404       .  A
C842        H846   1.083       .  S
C843        C848   1.406       .  A
C843        C852   1.404       .  A
C848        C849   1.389       .  A
C848        H853   1.083       .  S
C849        C850   1.399       .  A
C849        H854   1.083       .  S
C850        C851   1.405       .  A
C851        C852   1.396       .  A
C851        H855   1.083       .  S
C852        H856   1.083       .  S
C857        C858   1.410       .  A
C857        C862   1.398       .  A
C857        H867   1.082       .  S
C858        C863   1.489       .  S
C858        C859   1.407       .  A
C859        C860   1.394       .  A
C859        H864   1.082       .  S
C860        C861   1.402       .  A
C860        H865   1.084       .  S
C861        C862   1.400       .  A
C862        H866   1.083       .  S
C863        C868   1.408       .  A
C863        C872   1.408       .  A
C868        C869   1.398       .  A
C868        H873   1.082       .  S
C869        C870   1.403       .  A
C869        H874   1.083       .  S
C870        C871   1.403       .  A
C871        C872   1.394       .  A
C871        H875   1.083       .  S
C872        H876   1.082       .  S
C877        C878   1.404       .  A
C877        C882   1.393       .  A
C877        H887   1.083       .  S
C878        C883   1.475       .  S
C878        C879   1.406       .  A
C879        C880   1.391       .  A
C879        H884   1.083       .  S
C880        C881   1.402       .  A
C880        H885   1.083       .  S
C881        C882   1.403       .  A
C882        H886   1.083       .  S
C883        C888   1.406       .  A
C883        C892   1.404       .  A
C888        C889   1.391       .  A
C888        H893   1.083       .  S
C889        C890   1.401       .  A
C889        H894   1.083       .  S
C890        C891   1.404       .  A
C891        C892   1.392       .  A
C891        H895   1.083       .  S
C892        H896   1.083       .  S
C897        C898   1.401       .  A
C897        C902   1.394       .  A
C897        H907   1.083       .  S
C898        C903   1.467       .  S
C898        C899   1.401       .  A
C899        C900   1.392       .  A
C899        H904   1.083       .  S
C900        C901   1.404       .  A
C900        H905   1.083       .  S
C901        C902   1.407       .  A
C902        H906   1.083       .  S
C903        C908   1.402       .  A
C903        C912   1.402       .  A
C908        C909   1.393       .  A
C908        H913   1.083       .  S
C909        C910   1.403       .  A
C909        H914   1.083       .  S
C910        C911   1.403       .  A
C911        C912   1.392       .  A
C911        H915   1.083       .  S
C912        H916   1.083       .  S
C917        C918   1.405       .  A
C917        C922   1.395       .  A
C917        H927   1.083       .  S
C918        C923   1.477       .  S
C918        C919   1.404       .  A
C919        C920   1.393       .  A
C919        H924   1.083       .  S
C920        C921   1.403       .  A
C920        H925   1.083       .  S
C921        C922   1.404       .  A
C922        H926   1.083       .  S
C923        C928   1.403       .  A
C923        C932   1.405       .  A
C928        C929   1.394       .  A
C928        H933   1.083       .  S
C929        C930   1.406       .  A
C929        H934   1.083       .  S
C930        C931   1.403       .  A
C931        C932   1.393       .  A
C931        H935   1.083       .  S
C932        H936   1.083       .  S
C937        C938   1.403       .  A
C937        C942   1.395       .  A
C937        H947   1.083       .  S
C938        C943   1.481       .  S
C938        C939   1.405       .  A
C939        C940   1.398       .  A
C939        H944   1.083       .  S
C940        C941   1.406       .  A
C940        H945   1.083       .  S
C941        C942   1.407       .  A
C942        H946   1.083       .  S
C943        C948   1.406       .  A
C943        C952   1.403       .  A
C948        C949   1.398       .  A
C948        H953   1.083       .  S
C949        C950   1.405       .  A
C949        H954   1.083       .  S
C950        C951   1.407       .  A
C951        C952   1.395       .  A
C951        H955   1.083       .  S
C952        H956   1.083       .  S
C957        C958   1.407       .  A
C957        C962   1.403       .  A
C957        H967   1.083       .  S
C958        C963   1.496       .  S
C958        C959   1.406       .  A
C959        C960   1.402       .  A
C959        H964   1.083       .  S
C960        C961   1.409       .  A
C960        H965   1.083       .  S
C961        C962   1.408       .  A
C962        H966   1.083       .  S
C963        C968   1.407       .  A
C963        C972   1.407       .  A
C968        C969   1.404       .  A
C968        H973   1.083       .  S
C969        C970   1.408       .  A
C969        H974   1.083       .  S
C970        C971   1.407       .  A
C971        C972   1.402       .  A
C971        H975   1.083       .  S
C972        H976   1.083       .  S
C977        C978   1.404       .  A
C977        C982   1.391       .  A
C977        H987   1.083       .  S
C978        C983   1.477       .  S
C978        C979   1.405       .  A
C979        C980   1.394       .  A
C979        H984   1.083       .  S
C980        C981   1.403       .  A
C980        H985   1.083       .  S
C981        C982   1.405       .  A
C982        H986   1.083       .  S
C983        C988   1.404       .  A
C983        C992   1.405       .  A
C988        C989   1.392       .  A
C988        H993   1.083       .  S
C989        C990   1.404       .  A
C989        H994   1.083       .  S
C990        C991   1.402       .  A
C991        C992   1.393       .  A
C991        H995   1.083       .  S
C992        H996   1.083       .  S
C997        C998   1.405       .  A
C997       C1002   1.399       .  A
C997       H1007   1.083       .  S
C998       C1003   1.485       .  S
C998        C999   1.404       .  A
C999       C1000   1.400       .  A
C999       H1004   1.083       .  S
C1000      C1001   1.407       .  A
C1000      H1005   1.083       .  S
C1001      C1002   1.408       .  A
C1002      H1006   1.083       .  S
C1003      C1008   1.404       .  A
C1003      C1012   1.406       .  A
C1008      C1009   1.397       .  A
C1008      H1013   1.083       .  S
C1009      C1010   1.406       .  A
C1009      H1014   1.083       .  S
C1010      C1011   1.407       .  A
C1011      C1012   1.402       .  A
C1011      H1015   1.083       .  S
C1012      H1016   1.083       .  S
C1017      C1018   1.403       .  A
C1017      C1022   1.390       .  A
C1017      H1027   1.083       .  S
C1018      C1023   1.478       .  S
C1018      C1019   1.408       .  A
C1019      C1020   1.395       .  A
C1019      H1024   1.083       .  S
C1020      C1021   1.402       .  A
C1020      H1025   1.083       .  S
C1021      C1022   1.403       .  A
C1022      H1026   1.083       .  S
C1023      C1028   1.402       .  A
C1023      C1032   1.408       .  A
C1028      C1029   1.388       .  A
C1028      H1033   1.083       .  S
C1029      C1030   1.405       .  A
C1029      H1034   1.083       .  S
C1030      C1031   1.402       .  A
C1031      C1032   1.397       .  A
C1031      H1035   1.083       .  S
C1032      H1036   1.083       .  S
C1037      C1038   1.408       .  A
C1037      C1042   1.403       .  A
C1037      H1047   1.082       .  S
C1038      C1043   1.499       .  S
C1038      C1039   1.408       .  A
C1039      C1040   1.403       .  A
C1039      H1044   1.083       .  S
C1040      C1041   1.409       .  A
C1040      H1045   1.083       .  S
C1041      C1042   1.408       .  A
C1042      H1046   1.083       .  S
C1043      C1048   1.408       .  A
C1043      C1052   1.408       .  A
C1048      C1049   1.404       .  A
C1048      H1053   1.083       .  S
C1049      C1050   1.407       .  A
C1049      H1054   1.083       .  S
C1050      C1051   1.408       .  A
C1051      C1052   1.402       .  A
C1051      H1055   1.083       .  S
C1052      H1056   1.083       .  S
C1057      C1058   1.407       .  A
C1057      C1062   1.400       .  A
C1057      H1067   1.082       .  S
C1058      C1063   1.499       .  S
C1058      C1059   1.411       .  A
C1059      C1060   1.403       .  A
C1059      H1064   1.082       .  S
C1060      C1061   1.406       .  A
C1060      H1065   1.083       .  S
C1061      C1062   1.407       .  A
C1062      H1066   1.083       .  S
C1063      C1068   1.410       .  A
C1063      C1072   1.408       .  A
C1068      C1069   1.403       .  A
C1068      H1073   1.082       .  S
C1069      C1070   1.405       .  A
C1069      H1074   1.083       .  S
C1070      C1071   1.406       .  A
C1071      C1072   1.400       .  A
C1071      H1075   1.083       .  S
C1072      H1076   1.082       .  S
C1077      C1078   1.406       .  A
C1077      C1082   1.399       .  A
C1077      H1087   1.083       .  S
C1078      C1083   1.495       .  S
C1078      C1079   1.408       .  A
C1079      C1080   1.404       .  A
C1079      H1084   1.083       .  S
C1080      C1081   1.408       .  A
C1080      H1085   1.083       .  S
C1081      C1082   1.408       .  A
C1082      H1086   1.083       .  S
C1083      C1088   1.407       .  A
C1083      C1092   1.407       .  A
C1088      C1089   1.400       .  A
C1088      H1093   1.083       .  S
C1089      C1090   1.407       .  A
C1089      H1094   1.083       .  S
C1090      C1091   1.407       .  A
C1091      C1092   1.403       .  A
C1091      H1095   1.083       .  S
C1092      H1096   1.083       .  S
C1097      C1098   1.401       .  A
C1097      C1102   1.393       .  A
C1097      H1107   1.083       .  S
C1098      C1103   1.470       .  S
C1098      C1099   1.403       .  A
C1099      C1100   1.394       .  A
C1099      H1104   1.083       .  S
C1100      C1101   1.405       .  A
C1100      H1105   1.083       .  S
C1101      C1102   1.405       .  A
C1102      H1106   1.083       .  S
C1103      C1108   1.401       .  A
C1103      C1112   1.402       .  A
C1108      C1109   1.393       .  A
C1108      H1113   1.083       .  S
C1109      C1110   1.406       .  A
C1109      H1114   1.083       .  S
C1110      C1111   1.404       .  A
C1111      C1112   1.393       .  A
C1111      H1115   1.083       .  S
C1112      H1116   1.083       .  S
C1117      C1118   1.408       .  A
C1117      C1122   1.402       .  A
C1117      H1127   1.082       .  S
C1118      C1123   1.495       .  S
C1118      C1119   1.408       .  A
C1119      C1120   1.399       .  A
C1119      H1124   1.082       .  S
C1120      C1121   1.405       .  A
C1120      H1125   1.083       .  S
C1121      C1122   1.407       .  A
C1122      H1126   1.083       .  S
C1123      C1128   1.407       .  A
C1123      C1132   1.408       .  A
C1128      C1129   1.399       .  A
C1128      H1133   1.083       .  S
C1129      C1130   1.407       .  A
C1129      H1134   1.083       .  S
C1130      C1131   1.406       .  A
C1131      C1132   1.402       .  A
C1131      H1135   1.083       .  S
C1132      H1136   1.082       .  S
C1137      C1138   1.409       .  A
C1137      C1142   1.400       .  A
C1137      H1147   1.082       .  S
C1138      C1143   1.494       .  S
C1138      C1139   1.407       .  A
C1139      C1140   1.400       .  A
C1139      H1144   1.082       .  S
C1140      C1141   1.408       .  A
C1140      H1145   1.083       .  S
C1141      C1142   1.405       .  A
C1142      H1146   1.083       .  S
C1143      C1148   1.407       .  A
C1143      C1152   1.409       .  A
C1148      C1149   1.398       .  A
C1148      H1153   1.082       .  S
C1149      C1150   1.404       .  A
C1149      H1154   1.083       .  S
C1150      C1151   1.406       .  A
C1151      C1152   1.402       .  A
C1151      H1155   1.083       .  S
C1152      H1156   1.082       .  S
C1157      C1158   1.406       .  A
C1157      C1162   1.391       .  A
C1157      H1167   1.082       .  S
C1158      C1163   1.480       .  S
C1158      C1159   1.405       .  A
C1159      C1160   1.393       .  A
C1159      H1164   1.082       .  S
C1160      C1161   1.404       .  A
C1160      H1165   1.083       .  S
C1161      C1162   1.401       .  A
C1162      H1166   1.083       .  S
C1163      C1168   1.404       .  A
C1163      C1172   1.408       .  A
C1168      C1169   1.390       .  A
C1168      H1173   1.082       .  S
C1169      C1170   1.402       .  A
C1169      H1174   1.083       .  S
C1170      C1171   1.402       .  A
C1171      C1172   1.395       .  A
C1171      H1175   1.083       .  S
C1172      H1176   1.082       .  S
C1177      C1178   1.401       .  A
C1177      C1182   1.396       .  A
C1177      H1187   1.083       .  S
C1178      C1183   1.468       .  S
C1178      C1179   1.402       .  A
C1179      C1180   1.389       .  A
C1179      H1184   1.083       .  S
C1180      C1181   1.403       .  A
C1180      H1185   1.083       .  S
C1181      C1182   1.406       .  A
C1182      H1186   1.083       .  S
C1183      C1188   1.402       .  A
C1183      C1192   1.400       .  A
C1188      C1189   1.396       .  A
C1188      H1193   1.083       .  S
C1189      C1190   1.406       .  A
C1189      H1194   1.083       .  S
C1190      C1191   1.406       .  A
C1191      C1192   1.389       .  A
C1191      H1195   1.083       .  S
C1192      H1196   1.084       .  S
C1197      C1198   1.404       .  A
C1197      C1202   1.395       .  A
C1197      H1207   1.083       .  S
C1198      C1203   1.484       .  S
C1198      C1199   1.407       .  A
C1199      C1200   1.401       .  A
C1199      H1204   1.083       .  S
C1200      C1201   1.405       .  A
C1200      H1205   1.083       .  S
C1201      C1202   1.404       .  A
C1202      H1206   1.083       .  S
C1203      C1208   1.404       .  A
C1203      C1212   1.406       .  A
C1208      C1209   1.397       .  A
C1208      H1213   1.083       .  S
C1209      C1210   1.406       .  A
C1209      H1214   1.083       .  S
C1210      C1211   1.405       .  A
C1211      C1212   1.398       .  A
C1211      H1215   1.083       .  S
C1212      H1216   1.083       .  S
C1217      C1218   1.405       .  A
C1217      C1222   1.399       .  A
C1217      H1227   1.083       .  S
C1218      C1223   1.475       .  S
C1218      C1219   1.401       .  A
C1219      C1220   1.391       .  A
C1219      H1224   1.083       .  S
C1220      C1221   1.407       .  A
C1220      H1225   1.083       .  S
C1221      C1222   1.405       .  A
C1222      H1226   1.083       .  S
C1223      C1228   1.404       .  A
C1223      C1232   1.402       .  A
C1228      C1229   1.393       .  A
C1228      H1233   1.083       .  S
C1229      C1230   1.403       .  A
C1229      H1234   1.083       .  S
C1230      C1231   1.407       .  A
C1231      C1232   1.397       .  A
C1231      H1235   1.083       .  S
C1232      H1236   1.083       .  S
C1237      C1238   1.405       .  A
C1237      C1242   1.393       .  A
C1237      H1247   1.083       .  S
C1238      C1243   1.477       .  S
C1238      C1239   1.405       .  A
C1239      C1240   1.391       .  A
C1239      H1244   1.083       .  S
C1240      C1241   1.402       .  A
C1240      H1245   1.083       .  S
C1241      C1242   1.403       .  A
C1242      H1246   1.083   1_554  S
C1243      C1248   1.408       .  A
C1243      C1252   1.402       .  A
C1248      C1249   1.396       .  A
C1248      H1253   1.083       .  S
C1249      C1250   1.402       .  A
C1249      H1254   1.083       .  S
C1250      C1251   1.404       .  A
C1251      C1252   1.388       .  A
C1251      H1255   1.083       .  S
C1252      H1256   1.083       .  S
C1257      C1258   1.403       .  A
C1257      C1262   1.391       .  A
C1257      H1267   1.083       .  S
C1258      C1263   1.474       .  S
C1258      C1259   1.403       .  A
C1259      C1260   1.397       .  A
C1259      H1264   1.083       .  S
C1260      C1261   1.406       .  A
C1260      H1265   1.083       .  S
C1261      C1262   1.404       .  A
C1262      H1266   1.083       .  S
C1263      C1268   1.403       .  A
C1263      C1272   1.403       .  A
C1268      C1269   1.396       .  A
C1268      H1273   1.083       .  S
C1269      C1270   1.405       .  A
C1269      H1274   1.083       .  S
C1270      C1271   1.406       .  A
C1271      C1272   1.393       .  A
C1271      H1275   1.083       .  S
C1272      H1276   1.083       .  S
C1277      C1278   1.404       .  A
C1277      C1282   1.397       .  A
C1277      H1287   1.083       .  S
C1278      C1283   1.486       .  S
C1278      C1279   1.406       .  A
C1279      C1280   1.402       .  A
C1279      H1284   1.083       .  S
C1280      C1281   1.407       .  A
C1280      H1285   1.083       .  S
C1281      C1282   1.406       .  A
C1282      H1286   1.083       .  S
C1283      C1288   1.405       .  A
C1283      C1292   1.405       .  A
C1288      C1289   1.401       .  A
C1288      H1293   1.083       .  S
C1289      C1290   1.408       .  A
C1289      H1294   1.083       .  S
C1290      C1291   1.406       .  A
C1291      C1292   1.398       .  A
C1291      H1295   1.083       .  S
C1292      H1296   1.083       .  S
C1297      C1298   1.402       .  A
C1297      C1302   1.394       .  A
C1297      H1307   1.083       .  S
C1298      C1303   1.471       .  S
C1298      C1299   1.402       .  A
C1299      C1300   1.394       .  A
C1299      H1304   1.083       .  S
C1300      C1301   1.406       .  A
C1300      H1305   1.083       .  S
C1301      C1302   1.406       .  A
C1302      H1306   1.083       .  S
C1303      C1308   1.402       .  A
C1303      C1312   1.402       .  A
C1308      C1309   1.395       .  A
C1308      H1313   1.083       .  S
C1309      C1310   1.405       .  A
C1309      H1314   1.083       .  S
C1310      C1311   1.405       .  A
C1311      C1312   1.394       .  A
C1311      H1315   1.083       .  S
C1312      H1316   1.083       .  S
C1317      C1318   1.406       .  A
C1317      C1322   1.399       .  A
C1317      H1327   1.083       .  S
C1318      C1323   1.484       .  S
C1318      C1319   1.404       .  A
C1319      C1320   1.397       .  A
C1319      H1324   1.083       .  S
C1320      C1321   1.407       .  A
C1320      H1325   1.083       .  S
C1321      C1322   1.405       .  A
C1322      H1326   1.083       .  S
C1323      C1328   1.403       .  A
C1323      C1332   1.407       .  A
C1328      C1329   1.395       .  A
C1328      H1333   1.083       .  S
C1329      C1330   1.407       .  A
C1329      H1334   1.083       .  S
C1330      C1331   1.406       .  A
C1331      C1332   1.400       .  A
C1331      H1335   1.083       .  S
C1332      H1336   1.083       .  S
