geometry optimzed in LAMMPS
_audit_creation_date              2020-12-01 
_audit_creation_method            'lammps2cif' 
_symmetry_space_group_name_H-M    'P1' 
_symmetry_Int_Tables_number       1 
_symmetry_cell_setting            triclinic 
loop_ 
_symmetry_equiv_pos_as_xyz 
  x,y,z 
_cell_length_a                    55.72783321 
_cell_length_b                    55.72024961999101 
_cell_length_c                    41.043642896670114 
_cell_angle_alpha                 90.02409829740168 
_cell_angle_beta                  89.98593877793681 
_cell_angle_gamma                 89.99502570594011 
loop_ 
_atom_site_label 
_atom_site_type_symbol 
_atom_site_fract_x 
_atom_site_fract_y 
_atom_site_fract_z 
_atom_site_charge 
Zr1        Zr  0.00115016  0.03173681  0.19887968     2.17500
O2          O  0.99704811  0.07340502  0.18139251    -0.50700
O3          O  0.00218062  0.02343439  0.14033654    -0.73900
O4          O  0.03955180  0.05264547  0.19299587    -0.80700
O5          O  0.93348785  0.02961610  0.21873177    -0.82500
O6          O  0.06943393  0.02984999  0.21462966    -0.78100
O7          O  0.96270636  0.05272560  0.19593011    -0.89700
O8          O  0.00402860  0.98307561  0.13268433    -0.75700
O9          O  0.02738520  0.99838070  0.19173620    -0.85200
O10         O  0.97602230  0.99753644  0.19125380    -0.84900
O11         O  0.02441212  0.02998317  0.24834652    -0.71600
O12         O  0.97724622  0.02860924  0.24744153    -0.83700
Zr13       Zr  0.00232897  0.95770493  0.28216231     2.26400
Zr14       Zr  0.05031570  0.99596426  0.24107098     2.06300
Zr15       Zr  0.95279882  0.99380148  0.24007367     2.10000
Zr16       Zr  0.00226418  0.96411021  0.18525911     1.78800
O17         O  0.92182030  0.00720332  0.27773661    -0.92500
O18         O  0.03752952  0.94673993  0.15923793    -0.40400
O19         O  0.97858616  0.95988240  0.23345567    -0.77000
O20         O  0.02609335  0.96089007  0.23346027    -0.95700
O21         O  0.02694380  0.99218454  0.28957194    -0.89000
O22         O  0.97582474  0.99085992  0.28895896    -0.91800
C23         C  0.00345992  0.00465486  0.12227532     1.01900
C24         C  0.94087336  0.04867009  0.20433773     1.14900
C25         C  0.06164789  0.04854317  0.19987754     1.05600
O26         O  0.08125595  0.97935793  0.20566472    -0.94000
O27         O  0.07032959  0.96323951  0.26915927    -0.89700
O28         O  0.04173695  0.94141083  0.29561541    -0.82900
C29         C  0.06353091  0.94582157  0.28740053     1.12300
O30         O  0.99885573  0.06893404  0.29727770    -0.96000
Zr31       Zr  0.00042513  0.02521024  0.29622046     1.88900
O32         O  0.00270786  0.96469639  0.34087177    -0.72600
O33         O  0.07833607  0.01338143  0.28001927    -0.51900
O34         O  0.03506823  0.04235571  0.32393742    -0.96500
O35         O  0.96477801  0.03992291  0.32443106    -0.53800
O36         O  0.00192128  0.00517541  0.34843424    -0.73100
C37         C  0.00260662  0.98355265  0.35889617     0.99200
O38         O  0.00313415  0.91379812  0.28217670    -0.61900
O39         O  0.92475811  0.97714352  0.20056454    -0.56700
O40         O  0.96368566  0.93914570  0.29455609    -0.93400
O41         O  0.93475067  0.95916034  0.26621779    -0.91800
O42         O  0.96729125  0.94895233  0.15608537    -0.92200
O43         O  0.00131854  0.92041016  0.18410006    -0.91000
C44         C  0.94193814  0.94223789  0.28500409     1.18100
H45         H  0.96577165  0.99948017  0.17250237     0.34000
H46         H  0.03615777  0.94687721  0.23108123     0.44900
H47         H  0.96541041  0.98841770  0.30749905     0.38400
H48         H  0.03357235  0.04446174  0.25166232     0.34900
H49         H  0.03194628  0.94162065  0.13739996     0.26700
H50         H  0.09436407  0.01086902  0.27017446     0.32600
H51         H  0.02981970  0.04470978  0.34676782     0.38500
H52         H  0.97328398  0.94478848  0.13408300     0.33000
H53         H  0.90946336  0.97553051  0.21263842     0.31800
H54         H  0.90668100  0.00068637  0.26873446     0.33500
H55         H  0.95805256  0.02585381  0.33598544     0.32500
H56         H  0.00376004  0.91555280  0.20706047     0.36500
H57         H  0.98988527  0.90879858  0.26760287     0.29200
H58         H  0.00717670  0.07509389  0.16167432     0.33500
H59         H  0.99820206  0.07343525  0.32060525     0.36300
H60         H  0.92177178  0.99023302  0.18478106     0.28900
H61         H  0.01770311  0.90920030  0.26985527     0.41800
H62         H  0.07900148  0.98751031  0.18445817     0.31800
H63         H  0.04819283  0.96056505  0.15486940     0.39500
H64         H  0.95309294  0.04331003  0.30685981     0.31300
H65         H  0.07567568  0.03092740  0.27879433     0.31400
H66         H  0.00511724  0.08316321  0.19829898     0.31600
Zr67       Zr  0.00002732  0.03077637  0.69881292     2.17500
O68         O  0.99595614  0.07209789  0.67982497    -0.50700
O69         O  0.99993395  0.02195538  0.64035864    -0.73900
O70         O  0.03847324  0.05160227  0.69220087    -0.80700
O71         O  0.93301472  0.02971823  0.72217717    -0.82500
O72         O  0.06826299  0.02952200  0.71536643    -0.78100
O73         O  0.96181723  0.05226044  0.69743965    -0.89700
O74         O  0.00139312  0.98156126  0.63303836    -0.75700
O75         O  0.02615080  0.99735620  0.69168028    -0.85200
O76         O  0.97469736  0.99661835  0.69187233    -0.84900
O77         O  0.02354706  0.02935111  0.74810926    -0.71600
O78         O  0.97663433  0.02767229  0.74784410    -0.83700
Zr79       Zr  0.00137420  0.95719999  0.78306455     2.26400
Zr80       Zr  0.04920075  0.99516632  0.74083574     2.06300
Zr81       Zr  0.95183615  0.99301490  0.74108651     2.10000
Zr82       Zr  0.00084078  0.96310831  0.68602811     1.78800
O83         O  0.91921196  0.00582403  0.77652225    -0.92500
O84         O  0.03505218  0.94540552  0.65784709    -0.40400
O85         O  0.97740455  0.95894067  0.73453054    -0.77000
O86         O  0.02486039  0.96008405  0.73409397    -0.95700
O87         O  0.02624271  0.99155039  0.78975405    -0.89000
O88         O  0.97510463  0.99055465  0.78981671    -0.91800
C89         C  0.00071711  0.00308509  0.62242485     1.01900
C90         C  0.94024203  0.04861165  0.70730822     1.14900
C91         C  0.06050583  0.04791731  0.69988909     1.05600
O92         O  0.07723278  0.97726967  0.70236682    -0.94000
O93         O  0.06916376  0.96292181  0.76958479    -0.89700
O94         O  0.04078714  0.94088392  0.79618080    -0.82900
C95         C  0.06251617  0.94552000  0.78788705     1.12300
O96         O  0.99799683  0.06844976  0.79794536    -0.96000
Zr97       Zr  0.00008373  0.02475058  0.79643535     1.88900
O98         O  0.00175152  0.96460769  0.84160371    -0.72600
O99         O  0.07972304  0.01111234  0.77747245    -0.51900
O100        O  0.03572904  0.04135127  0.82243588    -0.96500
O101        O  0.96501740  0.03918204  0.82616649    -0.53800
O102        O  0.00302620  0.00510007  0.84870800    -0.73100
C103        C  0.00280394  0.98354130  0.85938139     0.99200
O104        O  0.00229995  0.91329582  0.78431319    -0.61900
O105        O  0.92470614  0.97649742  0.70025410    -0.56700
O106        O  0.96298536  0.93881862  0.79663569    -0.93400
O107        O  0.93385958  0.95887335  0.76877702    -0.91800
O108        O  0.96511559  0.94747511  0.65930642    -0.92200
O109        O  0.00062039  0.91943251  0.68484726    -0.91000
C110        C  0.94116363  0.94203154  0.78763814     1.18100
H111        H  0.96432002  0.99848625  0.67322963     0.34000
H112        H  0.03487514  0.94603078  0.73176806     0.44900
H113        H  0.96477732  0.98835537  0.80850272     0.38400
H114        H  0.03270908  0.04384950  0.75122732     0.34900
H115        H  0.02846894  0.93942091  0.63694349     0.26700
H116        H  0.09473821  0.01114007  0.76456878     0.32600
H117        H  0.03092164  0.04452502  0.84526371     0.38500
H118        H  0.97043111  0.94330060  0.63699252     0.33000
H119        H  0.90978548  0.97279787  0.71234527     0.31800
H120        H  0.90447921  0.99963246  0.76597722     0.33500
H121        H  0.95972919  0.02552909  0.83982767     0.32500
H122        H  0.99990487  0.91464600  0.70805296     0.36500
H123        H  0.98854199  0.90795262  0.77088257     0.29200
H124        H  0.00575006  0.07325136  0.65972384     0.33500
H125        H  0.99894949  0.07286496  0.82128440     0.36300
H126        H  0.92037817  0.99025089  0.68617356     0.28900
H127        H  0.01639289  0.90856862  0.77109521     0.41800
H128        H  0.07496916  0.98642367  0.68193027     0.31800
H129        H  0.04520143  0.95921647  0.65155961     0.39500
H130        H  0.95236002  0.04076168  0.80938017     0.31300
H131        H  0.07560911  0.02828088  0.78024593     0.31400
H132        H  0.00440243  0.08217566  0.69602728     0.31600
Zr133      Zr  0.28056255  0.25118136  0.07065632     2.17500
O134        O  0.32154382  0.25434913  0.04998677    -0.50700
O135        O  0.27132500  0.25216844  0.01247700    -0.73900
O136        O  0.30069681  0.21241669  0.06320736    -0.80700
O137        O  0.27921784  0.31858428  0.09178490    -0.82500
O138        O  0.27837546  0.18276999  0.08627949    -0.78100
O139        O  0.30252893  0.28915103  0.06984238    -0.89700
O140        O  0.23087301  0.25046264  0.00604046    -0.75700
O141        O  0.24689609  0.22518693  0.06449335    -0.85200
O142        O  0.24640282  0.27664648  0.06427782    -0.84900
O143        O  0.27963566  0.22757476  0.11986831    -0.71600
O144        O  0.27819058  0.27481528  0.11954497    -0.83700
Zr145      Zr  0.20799177  0.25014944  0.15637065     2.26400
Zr146      Zr  0.24515228  0.20211616  0.11375693     2.06300
Zr147      Zr  0.24343752  0.29961248  0.11347486     2.10000
Zr148      Zr  0.21273433  0.25062968  0.05927481     1.78800
O149        O  0.25776926  0.33184930  0.14849180    -0.92500
O150        O  0.19530019  0.21630187  0.03111275    -0.40400
O151        O  0.20917481  0.27414521  0.10783201    -0.77000
O152        O  0.21020416  0.22664166  0.10738655    -0.95700
O153        O  0.24237374  0.22518848  0.16264289    -0.89000
O154        O  0.24158619  0.27630005  0.16216298    -0.91800
C155        C  0.25226809  0.25140191  0.99497853     1.01900
C156        C  0.29844962  0.31103664  0.07803648     1.14900
C157        C  0.29667249  0.19036421  0.07049420     1.05600
O158        O  0.22787645  0.17165637  0.07823350    -0.94000
O159        O  0.21258075  0.18248698  0.14257892    -0.89700
O160        O  0.19121955  0.21097584  0.16998074    -0.82900
C161        C  0.19537940  0.18923507  0.16122214     1.12300
O162        O  0.31958036  0.25296523  0.16830289    -0.96000
Zr163      Zr  0.27583598  0.25129789  0.16812250     1.88900
O164        O  0.21614523  0.25027815  0.21469872    -0.72600
O165        O  0.26270698  0.17333857  0.15154622    -0.51900
O166        O  0.29217995  0.21548001  0.19398844    -0.96500
O167        O  0.29230685  0.28578611  0.19715125    -0.53800
O168        O  0.25675280  0.25039600  0.22092782    -0.73100
C169        C  0.23531228  0.25021717  0.23205088     0.99200
O170        O  0.16413190  0.24805815  0.15697648    -0.61900
O171        O  0.22546999  0.32702077  0.07414511    -0.56700
O172        O  0.18983217  0.28864696  0.17020387    -0.93400
O173        O  0.21025653  0.31784304  0.14293800    -0.91800
O174        O  0.19594241  0.28646295  0.03411123    -0.92200
O175        O  0.16905845  0.24968059  0.05758272    -0.91000
C176        C  0.19337282  0.31055054  0.16174152     1.18100
H177        H  0.24806764  0.28705068  0.04562944     0.34000
H178        H  0.19606841  0.21671816  0.10533012     0.44900
H179        H  0.23971531  0.28668544  0.18086338     0.38400
H180        H  0.29410471  0.21828310  0.12253048     0.34900
H181        H  0.19051739  0.22252296  0.00945295     0.26700
H182        H  0.26244550  0.15784204  0.13973800     0.32600
H183        H  0.29341404  0.21954773  0.21741326     0.38500
H184        H  0.18919235  0.28084566  0.01313680     0.33000
H185        H  0.22311850  0.34218728  0.08631057     0.31800
H186        H  0.25175041  0.34675145  0.13820296     0.33500
H187        H  0.27890380  0.29217486  0.21040687     0.32500
H188        H  0.16400227  0.25480841  0.07963628     0.36500
H189        H  0.15844958  0.26285441  0.14609087     0.29200
H190        H  0.32199789  0.24471392  0.02968639     0.33500
H191        H  0.32441720  0.25102658  0.19137184     0.36300
H192        H  0.23842986  0.33067985  0.05841782     0.28900
H193        H  0.15992315  0.23525711  0.14123148     0.41800
H194        H  0.23488478  0.17485157  0.05649982     0.31800
H195        H  0.20904690  0.20558968  0.02650695     0.39500
H196        H  0.29487956  0.29806227  0.18007469     0.31300
H197        H  0.27990743  0.17769680  0.15272996     0.31400
H198        H  0.33180297  0.24553732  0.06560182     0.31600
Zr199      Zr  0.28083539  0.24918885  0.57150742     2.17500
O200        O  0.32277889  0.25277597  0.55488066    -0.50700
O201        O  0.27235864  0.24879026  0.51317667    -0.73900
O202        O  0.30129331  0.21046460  0.56517166    -0.80700
O203        O  0.27945959  0.31677869  0.59122717    -0.82500
O204        O  0.27871875  0.18116179  0.58859592    -0.78100
O205        O  0.30240943  0.28725246  0.56881337    -0.89700
O206        O  0.23190254  0.24839303  0.50594464    -0.75700
O207        O  0.24713658  0.22331452  0.56484171    -0.85200
O208        O  0.24675697  0.27464528  0.56385640    -0.84900
O209        O  0.27904526  0.22622816  0.62114767    -0.71600
O210        O  0.27781584  0.27331176  0.61980231    -0.83700
Zr211      Zr  0.20688787  0.24921298  0.65534072     2.26400
Zr212      Zr  0.24472235  0.20067048  0.61436275     2.06300
Zr213      Zr  0.24331194  0.29817719  0.61233257     2.10000
Zr214      Zr  0.21300934  0.24874306  0.55862378     1.78800
O215        O  0.25632331  0.32983139  0.64921407    -0.92500
O216        O  0.19620892  0.21357596  0.53184507    -0.40400
O217        O  0.20904558  0.27279410  0.60644976    -0.77000
O218        O  0.20982764  0.22513092  0.60699806    -0.95700
O219        O  0.24117405  0.22429246  0.66273462    -0.89000
O220        O  0.24039150  0.27547624  0.66154521    -0.91800
C221        C  0.25345249  0.24843861  0.49535640     1.01900
C222        C  0.29852524  0.30912431  0.57715808     1.14900
C223        C  0.29723225  0.18851864  0.57303434     1.05600
O224        O  0.22665041  0.17172646  0.57726869    -0.94000
O225        O  0.21246670  0.18105821  0.64389852    -0.89700
O226        O  0.19071419  0.20989354  0.67004953    -0.82900
C227        C  0.19513714  0.18799759  0.66220781     1.12300
O228        O  0.31818813  0.25141861  0.67169362    -0.96000
Zr229      Zr  0.27448634  0.25046187  0.66882179     1.88900
O230        O  0.21411136  0.25116351  0.71383613    -0.72600
O231        O  0.26131483  0.17096890  0.65165112    -0.51900
O232        O  0.29049900  0.21522323  0.69645077    -0.96500
O233        O  0.29025367  0.28618344  0.69562779    -0.53800
O234        O  0.25461066  0.25055534  0.72112308    -0.73100
C235        C  0.23302086  0.25111987  0.73169377     0.99200
O236        O  0.16305177  0.24596406  0.65613342    -0.61900
O237        O  0.22898251  0.32624441  0.57120208    -0.56700
O238        O  0.18759367  0.28789009  0.66502655    -0.93400
O239        O  0.20809076  0.31647945  0.63665415    -0.91800
O240        O  0.19573607  0.28293771  0.53003549    -0.92200
O241        O  0.16929363  0.24930134  0.55838313    -0.91000
C242        C  0.19074137  0.30945428  0.65482937     1.18100
H243        H  0.24866211  0.28488033  0.54502576     0.34000
H244        H  0.19574540  0.21513613  0.60488310     0.44900
H245        H  0.23819656  0.28613338  0.67989293     0.38400
H246        H  0.29347394  0.21697918  0.62440665     0.34900
H247        H  0.18926703  0.21979472  0.51129673     0.26700
H248        H  0.26285808  0.15607537  0.63864992     0.32600
H249        H  0.29231377  0.22011574  0.71951436     0.38500
H250        H  0.18904645  0.27615623  0.50966391     0.33000
H251        H  0.21183627  0.32214579  0.56822290     0.31800
H252        H  0.25337335  0.34492719  0.63714001     0.33500
H253        H  0.27721013  0.29185689  0.71009095     0.32500
H254        H  0.16477587  0.25299797  0.58116864     0.36500
H255        H  0.15678612  0.26052253  0.64525663     0.29200
H256        H  0.32454295  0.24287207  0.53495832     0.33500
H257        H  0.32219649  0.25065775  0.69518086     0.36300
H258        H  0.22878417  0.34201874  0.58230476     0.28900
H259        H  0.15914572  0.23299700  0.64049708     0.41800
H260        H  0.23589458  0.17326643  0.55677590     0.31800
H261        H  0.21032754  0.20413913  0.52479859     0.39500
H262        H  0.29111924  0.29840154  0.67816811     0.31300
H263        H  0.27803320  0.17623820  0.65557815     0.31400
H264        H  0.33222506  0.24433762  0.57177114     0.31600
Zr265      Zr  0.21678550  0.74881567  0.33219765     2.17500
O266        O  0.17474519  0.74540544  0.31606475    -0.50700
O267        O  0.22546764  0.74824202  0.27376828    -0.73900
O268        O  0.19702015  0.78754040  0.32340147    -0.80700
O269        O  0.21776042  0.68168387  0.35521230    -0.82500
O270        O  0.21931500  0.81723673  0.34646896    -0.78100
O271        O  0.19561168  0.71044514  0.32973301    -0.89700
O272        O  0.26590088  0.74972883  0.26679773    -0.75700
O273        O  0.25037449  0.77471398  0.32514467    -0.85200
O274        O  0.25088453  0.72328427  0.32595687    -0.84900
O275        O  0.21823717  0.77283554  0.38107133    -0.71600
O276        O  0.21936086  0.72574432  0.38149979    -0.83700
Zr277      Zr  0.29023023  0.75029624  0.41675656     2.26400
Zr278      Zr  0.25271244  0.79816051  0.37401064     2.06300
Zr279      Zr  0.25388734  0.70075745  0.37547265     2.10000
Zr280      Zr  0.28445340  0.74930660  0.31971132     1.78800
O281        O  0.24047418  0.67113820  0.41508229    -0.92500
O282        O  0.30083684  0.78487177  0.29323070    -0.40400
O283        O  0.28816809  0.72602870  0.36842385    -0.77000
O284        O  0.28763789  0.77352410  0.36752120    -0.95700
O285        O  0.25596502  0.77545314  0.42314822    -0.89000
O286        O  0.25659599  0.72440627  0.42378398    -0.91800
C287        C  0.24442494  0.74902174  0.25601781     1.01900
C288        C  0.19914928  0.68886819  0.33967069     1.14900
C289        C  0.20111559  0.80961549  0.33047245     1.05600
O290        O  0.26873043  0.82846199  0.33721757    -0.94000
O291        O  0.28588680  0.81793168  0.40142288    -0.89700
O292        O  0.30720456  0.78968977  0.42932784    -0.82900
C293        C  0.30316592  0.81134842  0.42003879     1.12300
O294        O  0.17877876  0.74674488  0.43059681    -0.96000
Zr295      Zr  0.22244475  0.74957778  0.42970086     1.88900
O296        O  0.28244123  0.75082039  0.47526858    -0.72600
O297        O  0.23597549  0.82731664  0.41198547    -0.51900
O298        O  0.20552098  0.78543694  0.45478906    -0.96500
O299        O  0.20733678  0.71506808  0.45997548    -0.53800
O300        O  0.24189181  0.75177166  0.48215197    -0.73100
C301        C  0.26342495  0.75163672  0.49293421     0.99200
O302        O  0.33417631  0.75095017  0.41788843    -0.61900
O303        O  0.26767849  0.67047532  0.33702776    -0.56700
O304        O  0.30848323  0.71155461  0.42946210    -0.93400
O305        O  0.28885570  0.68264459  0.40060399    -0.91800
O306        O  0.30045459  0.71465759  0.29076395    -0.92200
O307        O  0.32814879  0.74874657  0.31861586    -0.91000
C308        C  0.30566747  0.68987171  0.41952540     1.18100
H309        H  0.24909048  0.71266530  0.30747715     0.34000
H310        H  0.30180420  0.78335164  0.36506255     0.44900
H311        H  0.25874155  0.71420680  0.44260224     0.38400
H312        H  0.20381128  0.78221765  0.38365273     0.34900
H313        H  0.30889384  0.77875000  0.27337756     0.26700
H314        H  0.23794042  0.84299641  0.40095795     0.32600
H315        H  0.20221496  0.78082494  0.47764998     0.38500
H316        H  0.30703655  0.72124277  0.27021372     0.33000
H317        H  0.28471262  0.67454113  0.33297749     0.31800
H318        H  0.24522322  0.65548078  0.40565910     0.33500
H319        H  0.22135892  0.70843642  0.47172026     0.32500
H320        H  0.33282437  0.74160701  0.33976565     0.36500
H321        H  0.33951623  0.73680702  0.40519855     0.29200
H322        H  0.17324508  0.75424877  0.29521436     0.33500
H323        H  0.17405704  0.74891054  0.45367422     0.36300
H324        H  0.26825743  0.65542086  0.34981445     0.28900
H325        H  0.33893408  0.76461220  0.40388627     0.41800
H326        H  0.26272576  0.82385649  0.31539559     0.31800
H327        H  0.28667089  0.79361280  0.28486197     0.39500
H328        H  0.20365168  0.70293299  0.44307281     0.31300
H329        H  0.21846044  0.82434480  0.41178006     0.31400
H330        H  0.16551844  0.75496910  0.33206420     0.31600
Zr331      Zr  0.21691341  0.75124807  0.83271062     2.17500
O332        O  0.17467141  0.74838133  0.81737126    -0.50700
O333        O  0.22520921  0.75102924  0.77418389    -0.73900
O334        O  0.19780697  0.79019664  0.82380887    -0.80700
O335        O  0.21829381  0.68373293  0.85264432    -0.82500
O336        O  0.22002663  0.81948295  0.84794185    -0.78100
O337        O  0.19541408  0.71316869  0.82990518    -0.89700
O338        O  0.26560978  0.75175427  0.76676298    -0.75700
O339        O  0.25063210  0.77700496  0.82595936    -0.85200
O340        O  0.25068872  0.72548245  0.82541966    -0.84900
O341        O  0.21856562  0.77470690  0.88202582    -0.71600
O342        O  0.21972880  0.72762339  0.88148963    -0.83700
Zr343      Zr  0.29048709  0.75166910  0.91660370     2.26400
Zr344      Zr  0.25308647  0.79991553  0.87529598     2.06300
Zr345      Zr  0.25410387  0.70248629  0.87452449     2.10000
Zr346      Zr  0.28441616  0.75127373  0.81957808     1.78800
O347        O  0.23960574  0.67142192  0.91128604    -0.92500
O348        O  0.30132664  0.78549731  0.79069470    -0.40400
O349        O  0.28845548  0.72773803  0.86798598    -0.77000
O350        O  0.28775222  0.77516467  0.86768721    -0.95700
O351        O  0.25637885  0.77688032  0.92410432    -0.89000
O352        O  0.25687099  0.72567325  0.92331950    -0.91800
C353        C  0.24405690  0.75152088  0.75620932     1.01900
C354        C  0.19937064  0.69129616  0.83816544     1.14900
C355        C  0.20202795  0.81214911  0.83133846     1.05600
O356        O  0.26880220  0.83197313  0.84110392    -0.94000
O357        O  0.28681824  0.81933442  0.90152791    -0.89700
O358        O  0.30758918  0.79082533  0.92958646    -0.82900
C359        C  0.30397459  0.81247822  0.92010498     1.12300
O360        O  0.17908761  0.75049196  0.93075728    -0.96000
Zr361      Zr  0.22285864  0.75089125  0.93022394     1.88900
O362        O  0.28334801  0.75105009  0.97512463    -0.72600
O363        O  0.23613954  0.82721040  0.91553579    -0.51900
O364        O  0.20663850  0.78568510  0.95877130    -0.96500
O365        O  0.20652777  0.71555168  0.95737231    -0.53800
O366        O  0.24285559  0.75065232  0.98254632    -0.73100
C367        C  0.26448122  0.75068613  0.99304849     0.99200
O368        O  0.33439453  0.75320673  0.91858348    -0.61900
O369        O  0.27039620  0.67397492  0.83525469    -0.56700
O370        O  0.30908038  0.71302653  0.92824122    -0.93400
O371        O  0.28816525  0.68391460  0.90151709    -0.91800
O372        O  0.30071175  0.71556315  0.79346764    -0.92200
O373        O  0.32806112  0.75239605  0.81770611    -0.91000
C374        C  0.30553420  0.69119911  0.91948379     1.18100
H375        H  0.24865466  0.71517887  0.80673051     0.34000
H376        H  0.30193879  0.78495505  0.86520441     0.44900
H377        H  0.25901537  0.71521226  0.94187130     0.38400
H378        H  0.20418957  0.78414936  0.88471827     0.34900
H379        H  0.30657767  0.77898360  0.76938452     0.26700
H380        H  0.23751918  0.84329872  0.90547957     0.32600
H381        H  0.20441645  0.78033011  0.98157610     0.38500
H382        H  0.30656756  0.72120636  0.77201804     0.33000
H383        H  0.26939892  0.65822604  0.84633057     0.31800
H384        H  0.24469574  0.65613542  0.90109723     0.33500
H385        H  0.21996743  0.70883725  0.97024136     0.32500
H386        H  0.33301932  0.75483896  0.84062695     0.36500
H387        H  0.34015979  0.73905274  0.90628064     0.29200
H388        H  0.17305988  0.75726787  0.79657187     0.33500
H389        H  0.17438692  0.74912542  0.95395433     0.36300
H390        H  0.25830227  0.67299469  0.81764482     0.28900
H391        H  0.33915318  0.76679708  0.90445492     0.41800
H392        H  0.26549225  0.82671627  0.81850950     0.31800
H393        H  0.28736806  0.79573367  0.78535848     0.39500
H394        H  0.20396935  0.70377797  0.93964545     0.31300
H395        H  0.21871511  0.82375061  0.91549835     0.31400
H396        H  0.16575246  0.75804355  0.83358656     0.31600
Zr397      Zr  0.50033507  0.96795552  0.95168234     2.17500
O398        O  0.50477445  0.92612505  0.93490871    -0.50700
O399        O  0.50107032  0.97587353  0.89324713    -0.73900
O400        O  0.46209470  0.94732533  0.94358994    -0.80700
O401        O  0.56717159  0.97017465  0.97475554    -0.82500
O402        O  0.43187191  0.96978045  0.96505986    -0.78100
O403        O  0.53868890  0.94675072  0.95085630    -0.89700
O404        O  0.49972072  0.01624210  0.88552602    -0.75700
O405        O  0.47387428  0.00110052  0.94405451    -0.85200
O406        O  0.52520154  0.00243004  0.94437797    -0.84900
O407        O  0.47629441  0.96940643  0.00045621    -0.71600
O408        O  0.52349411  0.97163760  0.00066384    -0.83700
Zr409      Zr  0.49716491  0.04199645  0.03514702     2.26400
Zr410      Zr  0.45035159  0.00335066  0.99288550     2.06300
Zr411      Zr  0.54766942  0.00665887  0.99368844     2.10000
Zr412      Zr  0.49871378  0.03560132  0.93799426     1.78800
O413        O  0.57992444  0.99490965  0.03029766    -0.92500
O414        O  0.46385246  0.05155757  0.90948965    -0.40400
O415        O  0.52154794  0.04030173  0.98688507    -0.77000
O416        O  0.47433467  0.03857004  0.98573000    -0.95700
O417        O  0.47288122  0.00722396  0.04207161    -0.89000
O418        O  0.52401199  0.00907156  0.04215354    -0.91800
C419        C  0.50059029  0.99463779  0.87517944     1.01900
C420        C  0.56025131  0.95094579  0.96033931     1.14900
C421        C  0.43991072  0.95136826  0.94989809     1.05600
O422        O  0.41919289  0.01922769  0.95738720    -0.94000
O423        O  0.42962370  0.03649460  0.01910633    -0.89700
O424        O  0.45736128  0.05820359  0.04732116    -0.82900
C425        C  0.43583498  0.05393697  0.03768935     1.12300
O426        O  0.50134611  0.93064831  0.04950629    -0.96000
Zr427      Zr  0.49967816  0.97439996  0.04885229     1.88900
O428        O  0.49697599  0.03461885  0.09377620    -0.72600
O429        O  0.42252228  0.98556128  0.03172628    -0.51900
O430        O  0.46471449  0.95754238  0.07621593    -0.96500
O431        O  0.53534207  0.95924070  0.07646668    -0.53800
O432        O  0.49858331  0.99415034  0.10127641    -0.73100
C433        C  0.49760168  0.01576335  0.11176167     0.99200
O434        O  0.49371069  0.08580199  0.03590061    -0.61900
O435        O  0.57491154  0.02273919  0.95266964    -0.56700
O436        O  0.53536043  0.06151237  0.04736579    -0.93400
O437        O  0.56482453  0.04201359  0.01935394    -0.91800
O438        O  0.53379957  0.05289832  0.91145447    -0.92200
O439        O  0.49741722  0.07927506  0.93589801    -0.91000
C440        C  0.55716146  0.05897356  0.03777216     1.18100
H441        H  0.53574905  0.00057114  0.92590491     0.34000
H442        H  0.46422261  0.05251271  0.98303055     0.44900
H443        H  0.53426501  0.01153344  0.06085054     0.38400
H444        H  0.46715724  0.95485728  0.00331143     0.34900
H445        H  0.47008315  0.05685549  0.88805589     0.26700
H446        H  0.40648067  0.98805058  0.02192470     0.32600
H447        H  0.46962071  0.95562182  0.09925326     0.38500
H448        H  0.52862921  0.05607530  0.88878121     0.33000
H449        H  0.58959506  0.02710372  0.96487422     0.31800
H450        H  0.59472441  0.00087724  0.01968751     0.33500
H451        H  0.54150306  0.97290886  0.08941274     0.32500
H452        H  0.50022798  0.08443780  0.95866577     0.36500
H453        H  0.50853572  0.09209814  0.02574301     0.29200
H454        H  0.49582664  0.92454480  0.91415162     0.33500
H455        H  0.50043193  0.92598147  0.07275159     0.36300
H456        H  0.57973671  0.00875608  0.93930015     0.28900
H457        H  0.48118683  0.08969822  0.01962163     0.41800
H458        H  0.42334387  0.01322510  0.93539625     0.31800
H459        H  0.45392278  0.03732882  0.90440216     0.39500
H460        H  0.54732823  0.95709894  0.05889017     0.31300
H461        H  0.42528856  0.96804649  0.03017728     0.31400
H462        H  0.49558090  0.91652043  0.95088844     0.31600
Zr463      Zr  0.49863251  0.96850978  0.45061462     2.17500
O464        O  0.50204638  0.92678680  0.43295377    -0.50700
O465        O  0.49719825  0.97802785  0.39259308    -0.73900
O466        O  0.45994516  0.94814743  0.44427362    -0.80700
O467        O  0.56654621  0.97044953  0.46766399    -0.82500
O468        O  0.43058312  0.97032996  0.46834510    -0.78100
O469        O  0.53700249  0.94760602  0.44510292    -0.89700
O470        O  0.49616295  0.01855865  0.38649330    -0.75700
O471        O  0.47240521  0.00209683  0.44549852    -0.85200
O472        O  0.52372229  0.00284835  0.44381875    -0.84900
O473        O  0.47589183  0.96932120  0.50051485    -0.71600
O474        O  0.52331119  0.97061858  0.49854023    -0.83700
Zr475      Zr  0.49877456  0.04080094  0.53689946     2.26400
Zr476      Zr  0.45016034  0.00364553  0.49544578     2.06300
Zr477      Zr  0.54774085  0.00556717  0.49208316     2.10000
Zr478      Zr  0.49751224  0.03642755  0.43982367     1.78800
O479        O  0.57859499  0.99055431  0.52879673    -0.92500
O480        O  0.46219041  0.05393650  0.41414951    -0.40400
O481        O  0.52184324  0.03964753  0.48753408    -0.77000
O482        O  0.47435933  0.03886472  0.48871346    -0.95700
O483        O  0.47418446  0.00618500  0.54344823    -0.89000
O484        O  0.52527583  0.00730760  0.54163208    -0.91800
C485        C  0.49638275  0.99717855  0.37528547     1.01900
C486        C  0.55899370  0.95164392  0.45277524     1.14900
C487        C  0.43801275  0.95205969  0.45230393     1.05600
O488        O  0.41866616  0.02039918  0.46116110    -0.94000
O489        O  0.43069511  0.03614087  0.52456512    -0.89700
O490        O  0.45951741  0.05737083  0.55142061    -0.82900
C491        C  0.43765509  0.05329707  0.54311705     1.12300
O492        O  0.50070193  0.92906371  0.54547811    -0.96000
Zr493      Zr  0.50055298  0.97282365  0.54780646     1.88900
O494        O  0.49889997  0.03217515  0.59499177    -0.72600
O495        O  0.42275934  0.98591512  0.53493347    -0.51900
O496        O  0.46620960  0.95578116  0.57632774    -0.96500
O497        O  0.53585212  0.95649713  0.57503560    -0.53800
O498        O  0.49977303  0.99153870  0.60079816    -0.73100
C499        C  0.49914193  0.01291848  0.61211182     0.99200
O500        O  0.49870227  0.08469521  0.54041405    -0.61900
O501        O  0.57656881  0.02255400  0.45383720    -0.56700
O502        O  0.53754394  0.05941431  0.54845186    -0.93400
O503        O  0.56605083  0.04017826  0.51834489    -0.91800
O504        O  0.53278169  0.05255141  0.41250021    -0.92200
O505        O  0.49764099  0.08013007  0.43858490    -0.91000
C506        C  0.55908415  0.05679211  0.53785334     1.18100
H507        H  0.53367552  0.00128407  0.42470297     0.34000
H508        H  0.46438684  0.05299884  0.48707568     0.44900
H509        H  0.53592241  0.00921283  0.56004229     0.38400
H510        H  0.46669434  0.95481895  0.50340992     0.34900
H511        H  0.46785413  0.05963061  0.39261321     0.26700
H512        H  0.40665854  0.98767940  0.52502240     0.32600
H513        H  0.47252251  0.95076247  0.59782340     0.38500
H514        H  0.52695382  0.05768580  0.39080876     0.33000
H515        H  0.59244621  0.01798600  0.46270250     0.31800
H516        H  0.59388833  0.99644908  0.51948234     0.33500
H517        H  0.54274642  0.97005809  0.58750159     0.32500
H518        H  0.49667623  0.08497696  0.46175730     0.36500
H519        H  0.51114612  0.09018537  0.52488413     0.29200
H520        H  0.49228696  0.92541599  0.41285358     0.33500
H521        H  0.50249569  0.92355498  0.56828259     0.36300
H522        H  0.57494438  0.01289862  0.43371582     0.28900
H523        H  0.48360529  0.09014155  0.53009671     0.41800
H524        H  0.42167507  0.01365936  0.43921563     0.31800
H525        H  0.45174640  0.04008688  0.40902044     0.39500
H526        H  0.54751074  0.95357171  0.55727184     0.31300
H527        H  0.42607005  0.96846707  0.53414423     0.31400
H528        H  0.49342585  0.91713627  0.44946297     0.31600
Zr529      Zr  0.71198768  0.75005244  0.42628587     2.17500
O530        O  0.66983153  0.75294361  0.44210738    -0.50700
O531        O  0.72066811  0.75008403  0.48469793    -0.73900
O532        O  0.69248432  0.71107596  0.43433174    -0.80700
O533        O  0.71395522  0.81760125  0.40632466    -0.82500
O534        O  0.71477935  0.68158051  0.41074312    -0.78100
O535        O  0.69087843  0.78851295  0.42956320    -0.89700
O536        O  0.76107076  0.74784871  0.49162265    -0.75700
O537        O  0.74542370  0.72376736  0.43235064    -0.85200
O538        O  0.74627548  0.77517241  0.43348784    -0.84900
O539        O  0.71325770  0.72683924  0.37675747    -0.71600
O540        O  0.71501563  0.77405265  0.37786168    -0.83700
Zr541      Zr  0.78538775  0.74928007  0.34152627     2.26400
Zr542      Zr  0.74757533  0.70116984  0.38272500     2.06300
Zr543      Zr  0.74987180  0.79858354  0.38478504     2.10000
Zr544      Zr  0.77966144  0.74886278  0.43875917     1.78800
O545        O  0.73704476  0.83010715  0.34762836    -0.92500
O546        O  0.79649695  0.71377262  0.46585162    -0.40400
O547        O  0.78372334  0.77267690  0.39065292    -0.77000
O548        O  0.78259118  0.72543384  0.39017993    -0.95700
O549        O  0.75090411  0.72461033  0.33427819    -0.89000
O550        O  0.75203923  0.77574832  0.33560637    -0.91800
C551        C  0.73961139  0.74885118  0.50241383     1.01900
C552        C  0.69495313  0.81032819  0.42096285     1.14900
C553        C  0.69668552  0.68904284  0.42709879     1.05600
O554        O  0.76349800  0.66938220  0.41712038    -0.94000
O555        O  0.78096879  0.68148296  0.35580255    -0.89700
O556        O  0.80218665  0.70993640  0.32824774    -0.82900
C557        C  0.79826656  0.68822560  0.33735560     1.12300
O558        O  0.67387212  0.75248093  0.32858130    -0.96000
Zr559      Zr  0.71761992  0.75096692  0.32893607     1.88900
O560        O  0.77742627  0.74962143  0.28301088    -0.72600
O561        O  0.73014560  0.67402089  0.34265275    -0.51900
O562        O  0.70080904  0.71567398  0.30226887    -0.96500
O563        O  0.70214943  0.78647080  0.30127231    -0.53800
O564        O  0.73685971  0.74995333  0.27621460    -0.73100
C565        C  0.75838424  0.74964270  0.26535752     0.99200
O566        O  0.82932896  0.74836428  0.33993129    -0.61900
O567        O  0.76582109  0.82701077  0.42436908    -0.56700
O568        O  0.80463960  0.78770407  0.33014961    -0.93400
O569        O  0.78548028  0.81629515  0.36014113    -0.91800
O570        O  0.79531729  0.78404204  0.46686759    -0.92200
O571        O  0.82334773  0.74888815  0.43987350    -0.91000
C572        C  0.80230524  0.80918111  0.34106815     1.18100
H573        H  0.74450940  0.78538204  0.45231963     0.34000
H574        H  0.79669817  0.71549199  0.39241323     0.44900
H575        H  0.75421222  0.78627529  0.31712026     0.38400
H576        H  0.69878153  0.71755650  0.37402455     0.34900
H577        H  0.80337662  0.71999040  0.48642083     0.26700
H578        H  0.73206334  0.65784427  0.35227454     0.32600
H579        H  0.69640705  0.72111079  0.28009814     0.38500
H580        H  0.79859364  0.77853966  0.48936659     0.33000
H581        H  0.76541939  0.84269544  0.41306093     0.31800
H582        H  0.74436360  0.84496268  0.35638114     0.33500
H583        H  0.71567989  0.79260732  0.28804530     0.32500
H584        H  0.82813212  0.75123594  0.41686379     0.36500
H585        H  0.83476549  0.76152513  0.35437326     0.29200
H586        H  0.66817686  0.74354311  0.46247901     0.33500
H587        H  0.66913208  0.75240052  0.30532942     0.36300
H588        H  0.75334530  0.82835942  0.44144201     0.28900
H589        H  0.83421659  0.73380021  0.35203074     0.41800
H590        H  0.77988066  0.67479337  0.42287677     0.31800
H591        H  0.78238322  0.70427071  0.47284294     0.39500
H592        H  0.70014130  0.79851989  0.31879797     0.31300
H593        H  0.71266840  0.67714195  0.34353614     0.31400
H594        H  0.66076192  0.74381130  0.42548745     0.31600
Zr595      Zr  0.78477643  0.75005867  0.84220202     2.17500
O596        O  0.82805839  0.75310879  0.83418314    -0.50700
O597        O  0.77727556  0.74994963  0.78367754    -0.73900
O598        O  0.80375891  0.71132932  0.83182153    -0.80700
O599        O  0.78304820  0.81752267  0.86040940    -0.82500
O600        O  0.78161473  0.68187073  0.85576999    -0.78100
O601        O  0.80472676  0.78851723  0.83463291    -0.89700
O602        O  0.73685466  0.74936137  0.77609549    -0.75700
O603        O  0.75111874  0.72427340  0.83494259    -0.85200
O604        O  0.75093590  0.77565312  0.83477528    -0.84900
O605        O  0.78278021  0.72639543  0.89114927    -0.71600
O606        O  0.78201150  0.77380866  0.89083961    -0.83700
Zr607      Zr  0.71092632  0.74960959  0.92561870     2.26400
Zr608      Zr  0.74835114  0.70111119  0.88389748     2.06300
Zr609      Zr  0.74759720  0.79879668  0.88364168     2.10000
Zr610      Zr  0.71728673  0.74986067  0.82852944     1.78800
O611        O  0.76228416  0.82905232  0.92150408    -0.92500
O612        O  0.70103098  0.71515861  0.79993459    -0.40400
O613        O  0.71332863  0.77343828  0.87694466    -0.77000
O614        O  0.71365754  0.72598485  0.87666602    -0.95700
O615        O  0.74503045  0.72436933  0.93262139    -0.89000
O616        O  0.74458506  0.77557164  0.93240424    -0.91800
C617        C  0.75846657  0.74957683  0.76566160     1.01900
C618        C  0.80110257  0.81025860  0.84372286     1.14900
C619        C  0.79961016  0.68932673  0.83911767     1.05600
O620        O  0.73146943  0.67054088  0.84819457    -0.94000
O621        O  0.71500459  0.68168116  0.91136062    -0.89700
O622        O  0.69369691  0.71033093  0.93852579    -0.82900
C623        C  0.69764749  0.68854574  0.92966558     1.12300
O624        O  0.82231416  0.75113329  0.94000059    -0.96000
Zr625      Zr  0.77854096  0.75024671  0.93927261     1.88900
O626        O  0.71817548  0.74913120  0.98428932    -0.72600
O627        O  0.76509760  0.67236760  0.92239759    -0.51900
O628        O  0.79495873  0.71467488  0.96557767    -0.96500
O629        O  0.79398375  0.78513272  0.96849737    -0.53800
O630        O  0.75868070  0.74848053  0.99160698    -0.73100
C631        C  0.73707292  0.74847500  0.00219596     0.99200
O632        O  0.66700181  0.74957352  0.92605789    -0.61900
O633        O  0.73199421  0.82825420  0.84516416    -0.56700
O634        O  0.69275854  0.78855202  0.93776178    -0.93400
O635        O  0.71285431  0.81721591  0.90900857    -0.91800
O636        O  0.70131062  0.78538049  0.80159014    -0.92200
O637        O  0.67361213  0.74966707  0.82617046    -0.91000
C638        C  0.69584359  0.81020016  0.92777555     1.18100
H639        H  0.75299141  0.78592659  0.81608391     0.34000
H640        H  0.69944835  0.71621950  0.87420433     0.44900
H641        H  0.74240623  0.78595529  0.95104161     0.38400
H642        H  0.79713357  0.71689850  0.89371800     0.34900
H643        H  0.69429973  0.72173037  0.77945292     0.26700
H644        H  0.76169859  0.65646900  0.91265065     0.32600
H645        H  0.79908633  0.71990503  0.98794365     0.38500
H646        H  0.69857816  0.78036039  0.77874658     0.33000
H647        H  0.73432094  0.84392065  0.85610792     0.31800
H648        H  0.76123059  0.84436539  0.90935599     0.33500
H649        H  0.78019818  0.79154233  0.98099285     0.32500
H650        H  0.66844766  0.75109247  0.84916746     0.36500
H651        H  0.66210715  0.76302187  0.91175748     0.29200
H652        H  0.83143042  0.74535151  0.81294030     0.33500
H653        H  0.82694610  0.75116224  0.96329380     0.36300
H654        H  0.74354698  0.82845498  0.82684174     0.28900
H655        H  0.66209931  0.73521351  0.91350882     0.41800
H656        H  0.73741448  0.67466439  0.82616718     0.31800
H657        H  0.71527511  0.70593371  0.79283809     0.39500
H658        H  0.79693786  0.79727219  0.95135548     0.31300
H659        H  0.78271359  0.67423135  0.92056224     0.31400
H660        H  0.83533380  0.74240584  0.85068836     0.31600
Zr661      Zr  0.71670568  0.25074269  0.08198798     2.17500
O662        O  0.67493875  0.24716411  0.06467387    -0.50700
O663        O  0.72474805  0.25159357  0.02330367    -0.73900
O664        O  0.69602670  0.28938557  0.07698921    -0.80700
O665        O  0.71856377  0.18272920  0.09983489    -0.82500
O666        O  0.71858288  0.31858101  0.10075850    -0.78100
O667        O  0.69549015  0.21254066  0.07844783    -0.89700
O668        O  0.76504903  0.25307652  0.01513327    -0.75700
O669        O  0.75006444  0.27699981  0.07550825    -0.85200
O670        O  0.75073398  0.22560386  0.07310492    -0.84900
O671        O  0.71881586  0.27303173  0.13231053    -0.71600
O672        O  0.72011784  0.22603688  0.12975630    -0.83700
Zr673      Zr  0.79149246  0.25022776  0.16419441     2.26400
Zr674      Zr  0.75287775  0.29897141  0.12564074     2.06300
Zr675      Zr  0.75472347  0.20147584  0.12106295     2.10000
Zr676      Zr  0.78417485  0.25187464  0.06761615     1.78800
O677        O  0.74160901  0.16956173  0.15746405    -0.92500
O678        O  0.80037281  0.28770644  0.04171011    -0.40400
O679        O  0.78867451  0.22727396  0.11485896    -0.77000
O680        O  0.78780086  0.27483876  0.11646679    -0.95700
O681        O  0.75714191  0.27475058  0.17325349    -0.89000
O682        O  0.75827165  0.22366173  0.17063929    -0.91800
C683        C  0.74340808  0.25256406  0.00497269     1.01900
C684        C  0.69946168  0.19053756  0.08598338     1.14900
C685        C  0.70002772  0.31126417  0.08522185     1.05600
O686        O  0.76809157  0.33048567  0.09015432    -0.94000
O687        O  0.78664489  0.31819650  0.15265585    -0.89700
O688        O  0.80870006  0.28927309  0.17811245    -0.82900
C689        C  0.80442229  0.31116394  0.17010378     1.12300
O690        O  0.68039359  0.24791179  0.18314252    -0.96000
Zr691      Zr  0.72407162  0.24824245  0.17934814     1.88900
O692        O  0.78523817  0.24918182  0.22296955    -0.72600
O693        O  0.73677387  0.32631345  0.16650751    -0.51900
O694        O  0.70803867  0.28257739  0.20900949    -0.96500
O695        O  0.70927185  0.21167902  0.20518768    -0.53800
O696        O  0.74481874  0.24839059  0.23108550    -0.73100
C697        C  0.76652749  0.24869512  0.24123583     0.99200
O698        O  0.83536821  0.25127774  0.16217634    -0.61900
O699        O  0.77088845  0.17419521  0.08011973    -0.56700
O700        O  0.81014215  0.21142259  0.17468712    -0.93400
O701        O  0.78965734  0.18300309  0.14594172    -0.91800
O702        O  0.80102370  0.21741017  0.03908786    -0.92200
O703        O  0.82782932  0.25227686  0.06511940    -0.91000
C704        C  0.80687366  0.18987892  0.16447028     1.18100
H705        H  0.74864448  0.21566178  0.05405854     0.34000
H706        H  0.80183611  0.28485482  0.11404267     0.44900
H707        H  0.76082453  0.21288926  0.18875430     0.38400
H708        H  0.70436031  0.28214298  0.13606077     0.34900
H709        H  0.80580483  0.28226220  0.01994162     0.26700
H710        H  0.73642093  0.34217314  0.15565355     0.32600
H711        H  0.70670626  0.27717460  0.23191922     0.38500
H712        H  0.80385658  0.22308238  0.01655388     0.33000
H713        H  0.77147027  0.15838015  0.09106687     0.31800
H714        H  0.74496608  0.15452631  0.14543077     0.33500
H715        H  0.72311215  0.20503653  0.21732395     0.32500
H716        H  0.83303106  0.24765970  0.08730556     0.36500
H717        H  0.84021961  0.23748411  0.14845583     0.29200
H718        H  0.67333009  0.25733001  0.04498297     0.33500
H719        H  0.67668216  0.24595297  0.20659250     0.39500
H720        H  0.75804903  0.17249598  0.06361406     0.28900
H721        H  0.83945164  0.26532796  0.14848923     0.41800
H722        H  0.76132006  0.32679650  0.06842593     0.31800
H723        H  0.78619671  0.29783653  0.03712896     0.39500
H724        H  0.70674086  0.20029974  0.18698024     0.31300
H725        H  0.71968525  0.32174352  0.16874938     0.31400
H726        H  0.66528619  0.25532156  0.08161458     0.31600
Zr727      Zr  0.71767957  0.24940095  0.58056709     2.17500
O728        O  0.67527206  0.24586326  0.56639346    -0.50700
O729        O  0.72641621  0.24924042  0.52203440    -0.73900
O730        O  0.69778121  0.28812029  0.57214522    -0.80700
O731        O  0.71884281  0.18206250  0.60169791    -0.82500
O732        O  0.72007731  0.31774154  0.59541571    -0.78100
O733        O  0.69676257  0.21109945  0.57666770    -0.89700
O734        O  0.76690079  0.24990999  0.51528835    -0.75700
O735        O  0.75139496  0.27516924  0.57383559    -0.85200
O736        O  0.75162415  0.22371273  0.57409036    -0.84900
O737        O  0.71909258  0.27314448  0.62960085    -0.71600
O738        O  0.72022780  0.22596836  0.62963668    -0.83700
Zr739      Zr  0.79082512  0.25052608  0.66546969     2.26400
Zr740      Zr  0.75350896  0.29848079  0.62284927     2.06300
Zr741      Zr  0.75472763  0.20092413  0.62337948     2.10000
Zr742      Zr  0.78535424  0.24951236  0.56831138     1.78800
O743        O  0.74045419  0.17004033  0.66058571    -0.92500
O744        O  0.80242523  0.28400464  0.54012614    -0.40400
O745        O  0.78895394  0.22632480  0.61707085    -0.77000
O746        O  0.78828213  0.27368773  0.61620157    -0.95700
O747        O  0.75654138  0.27563513  0.67187474    -0.89000
O748        O  0.75715283  0.22446482  0.67195038    -0.91800
C749        C  0.74545136  0.24965316  0.50436141     1.01900
C750        C  0.70034445  0.18941328  0.58602288     1.14900
C751        C  0.70184064  0.31017704  0.57940343     1.05600
O752        O  0.76970982  0.32960367  0.58753959    -0.94000
O753        O  0.78715810  0.31826196  0.64913139    -0.89700
O754        O  0.80784851  0.29004615  0.67791681    -0.82900
C755        C  0.80424569  0.31166392  0.66805856     1.12300
O756        O  0.67922051  0.24939641  0.67673010    -0.96000
Zr757      Zr  0.72300256  0.24967911  0.67805053     1.88900
O758        O  0.78297318  0.25110845  0.72401823    -0.72600
O759        O  0.73629054  0.32605124  0.66256318    -0.51900
O760        O  0.70647444  0.28502271  0.70494131    -0.96500
O761        O  0.70644177  0.21539101  0.70739679    -0.53800
O762        O  0.74239573  0.25116689  0.73069488    -0.73100
C763        C  0.76389937  0.25149209  0.74162192     0.99200
O764        O  0.83474721  0.25175422  0.66611453    -0.61900
O765        O  0.77092799  0.17235670  0.58408803    -0.56700
O766        O  0.80933536  0.21178843  0.67789024    -0.93400
O767        O  0.78917150  0.18271310  0.64997421    -0.91800
O768        O  0.80170424  0.21390353  0.54190788    -0.92200
O769        O  0.82905011  0.24947411  0.56762362    -0.91000
C770        C  0.80620772  0.18998498  0.66854523     1.18100
H771        H  0.74975911  0.21331434  0.55546377     0.34000
H772        H  0.80248181  0.28346296  0.61374564     0.44900
H773        H  0.75916002  0.21418006  0.69071220     0.38400
H774        H  0.70467465  0.28252835  0.63220504     0.34900
H775        H  0.80785362  0.27766318  0.51880485     0.26700
H776        H  0.73905796  0.34219839  0.65323718     0.32600
H777        H  0.70402671  0.28015408  0.72790380     0.38500
H778        H  0.80478065  0.21884366  0.51911627     0.33000
H779        H  0.77084783  0.15676720  0.59565347     0.31800
H780        H  0.74456944  0.15468574  0.64978868     0.33500
H781        H  0.71996182  0.20877961  0.72020401     0.32500
H782        H  0.83370990  0.24761515  0.59075709     0.36500
H783        H  0.84013869  0.23760644  0.65347463     0.29200
H784        H  0.67320554  0.25469863  0.54563084     0.33500
H785        H  0.67398990  0.24932892  0.69979058     0.36300
H786        H  0.75838891  0.17064308  0.56716965     0.28900
H787        H  0.83928465  0.26539774  0.65194337     0.41800
H788        H  0.76312737  0.32598716  0.56568139     0.31800
H789        H  0.78849182  0.29427525  0.53475504     0.39500
H790        H  0.70339165  0.20319472  0.69034644     0.31300
H791        H  0.71872574  0.32363731  0.66100009     0.31400
H792        H  0.66645173  0.25540499  0.58283795     0.31600
Zr793      Zr  0.49991165  0.46311301  0.05330664     2.17500
O794        O  0.49679538  0.42024608  0.06487071    -0.50700
O795        O  0.50062196  0.47145366  0.11187922    -0.73900
O796        O  0.53884288  0.44365391  0.06179180    -0.80700
O797        O  0.43240028  0.46470008  0.03408345    -0.82500
O798        O  0.56819311  0.46644521  0.03877981    -0.78100
O799        O  0.46132732  0.44295108  0.05992211    -0.89700
O800        O  0.50147175  0.51191665  0.11894014    -0.75700
O801        O  0.52572242  0.49683689  0.05997067    -0.85200
O802        O  0.47427503  0.49705125  0.06016836    -0.84900
O803        O  0.52325597  0.46478827  0.00395471    -0.71600
O804        O  0.47612828  0.46573170  0.00454494    -0.83700
Zr805      Zr  0.50031227  0.53656588  0.96885330     2.26400
Zr806      Zr  0.54862207  0.49927002  0.01064364     2.06300
Zr807      Zr  0.45109214  0.50022217  0.01126282     2.10000
Zr808      Zr  0.50007828  0.53072734  0.06607239     1.78800
O809        O  0.42040984  0.48634256  0.97342255    -0.92500
O810        O  0.53439867  0.54889422  0.09337657    -0.40400
O811        O  0.47650996  0.53442965  0.01766260    -0.77000
O812        O  0.52390733  0.53400832  0.01779424    -0.95700
O813        O  0.52546187  0.50241299  0.96184328    -0.89000
O814        O  0.47419849  0.50297900  0.96239262    -0.91800
C815        C  0.50127376  0.49040216  0.12970365     1.01900
C816        C  0.43961493  0.44656405  0.05061974     1.14900
C817        C  0.56085588  0.44810479  0.05471920     1.05600
O818        O  0.57888503  0.51701619  0.04601271    -0.94000
O819        O  0.56808930  0.53228497  0.98256610    -0.89700
O820        O  0.53947851  0.55376421  0.95566768    -0.82900
C821        C  0.56124563  0.54971966  0.96441975     1.12300
O822        O  0.49750970  0.42526267  0.95334066    -0.96000
Zr823      Zr  0.49942780  0.46894522  0.95580495     1.88900
O824        O  0.50035182  0.52895553  0.91011449    -0.72600
O825        O  0.57760392  0.48187462  0.97293457    -0.51900
O826        O  0.53535706  0.45247878  0.93037202    -0.96500
O827        O  0.46451310  0.45352102  0.92668750    -0.53800
O828        O  0.50075618  0.48841119  0.90326668    -0.73100
C829        C  0.50076118  0.50991911  0.89239423     0.99200
O830        O  0.50025511  0.58052647  0.96839087    -0.61900
O831        O  0.42177999  0.51440792  0.05091914    -0.56700
O832        O  0.46180485  0.55540530  0.95734887    -0.93400
O833        O  0.43309043  0.53538166  0.98610479    -0.91800
O834        O  0.46450593  0.54539172  0.09424041    -0.92200
O835        O  0.49856599  0.57440258  0.06718920    -0.91000
C836        C  0.44023447  0.55250997  0.96760133     1.18100
H837        H  0.46394624  0.49513951  0.07887314     0.34000
H838        H  0.53375703  0.54817745  0.02009213     0.44900
H839        H  0.46378100  0.50511043  0.94379227     0.38400
H840        H  0.53270370  0.45041417  0.00127847     0.34900
H841        H  0.52821904  0.55395180  0.11495122     0.26700
H842        H  0.59337472  0.48432813  0.98353522     0.32600
H843        H  0.53136058  0.45106980  0.90694515     0.38500
H844        H  0.47030485  0.55041751  0.11599910     0.33000
H845        H  0.42574144  0.53155144  0.05424514     0.31800
H846        H  0.40500117  0.49098840  0.98365869     0.33500
H847        H  0.45844941  0.46713251  0.91355671     0.32500
H848        H  0.50275392  0.57934989  0.04473632     0.36500
H849        H  0.48744779  0.58541911  0.98375686     0.29200
H850        H  0.50544757  0.41763212  0.08566229     0.33500
H851        H  0.49913965  0.42108643  0.92998402     0.36300
H852        H  0.40633863  0.51459965  0.03899831     0.28900
H853        H  0.51509468  0.58556158  0.97973948     0.41800
H854        H  0.57526191  0.51068162  0.06799866     0.31800
H855        H  0.54523408  0.53530675  0.09828264     0.39500
H856        H  0.45219070  0.45117094  0.94376557     0.31300
H857        H  0.57487754  0.46433406  0.97400782     0.31400
H858        H  0.50664089  0.41211475  0.04810577     0.31600
Zr859      Zr  0.50013916  0.46094362  0.55200775     2.17500
O860        O  0.49635753  0.41858374  0.56643892    -0.50700
O861        O  0.50147719  0.46878722  0.61083439    -0.73900
O862        O  0.53872204  0.44047046  0.55825284    -0.80700
O863        O  0.43234416  0.46353397  0.53310147    -0.82500
O864        O  0.56832473  0.46365861  0.53663259    -0.78100
O865        O  0.46150034  0.44038869  0.55598533    -0.89700
O866        O  0.50232797  0.50910727  0.61916721    -0.75700
O867        O  0.52632265  0.49426251  0.55957927    -0.85200
O868        O  0.47492400  0.49498183  0.56022887    -0.84900
O869        O  0.52331706  0.46339253  0.50246423    -0.71600
O870        O  0.47634337  0.46455286  0.50336832    -0.83700
Zr871      Zr  0.50111385  0.53596640  0.46994460     2.26400
Zr872      Zr  0.54912317  0.49745035  0.51026075     2.06300
Zr873      Zr  0.45166421  0.49912410  0.51144926     2.10000
Zr874      Zr  0.50113458  0.52836126  0.56675091     1.78800
O875        O  0.42174492  0.48535246  0.47241906    -0.92500
O876        O  0.53606018  0.54528504  0.59413013    -0.40400
O877        O  0.47749593  0.53291750  0.51867412    -0.77000
O878        O  0.52483332  0.53237058  0.51860312    -0.95700
O879        O  0.52593994  0.50173061  0.46160152    -0.89000
O880        O  0.47459894  0.50280607  0.46252564    -0.91800
C881        C  0.50232656  0.48743583  0.62925674     1.01900
C882        C  0.43966634  0.44456492  0.54769458     1.14900
C883        C  0.56076440  0.44488843  0.55140474     1.05600
O884        O  0.58023436  0.51280206  0.54636066    -0.94000
O885        O  0.56891718  0.53148519  0.48483499    -0.89700
O886        O  0.54053725  0.55300292  0.45751726    -0.82900
C887        C  0.56221824  0.54902794  0.46675281     1.12300
O888        O  0.49886442  0.42502887  0.45080287    -0.96000
Zr889      Zr  0.49945933  0.46870702  0.45451928     1.88900
O890        O  0.50104918  0.52973819  0.41112547    -0.72600
O891        O  0.57708097  0.48034172  0.47095831    -0.51900
O892        O  0.53497807  0.45410669  0.42612382    -0.96500
O893        O  0.46437800  0.45284799  0.42622570    -0.53800
O894        O  0.49904551  0.48940150  0.40273757    -0.73100
C895        C  0.50001654  0.51112585  0.39272129     0.99200
O896        O  0.50086641  0.57989720  0.47044411    -0.61900
O897        O  0.42199703  0.51437857  0.54989781    -0.56700
O898        O  0.46241765  0.55475166  0.45897434    -0.93400
O899        O  0.43376272  0.53484018  0.48800640    -0.91800
O900        O  0.46584999  0.54444026  0.59403035    -0.92200
O901        O  0.50064484  0.57198534  0.56957771    -0.91000
C902        C  0.44088614  0.55195248  0.46949082     1.18100
H903        H  0.46472664  0.49284181  0.57900373     0.34000
H904        H  0.53473309  0.54644628  0.52144376     0.44900
H905        H  0.46410785  0.50540443  0.44411608     0.38400
H906        H  0.53257305  0.44898577  0.49901465     0.34900
H907        H  0.52985181  0.55145434  0.61515085     0.26700
H908        H  0.59287137  0.48084859  0.48199248     0.32600
H909        H  0.52970040  0.45142203  0.40337669     0.38500
H910        H  0.47133533  0.54820659  0.61639759     0.33000
H911        H  0.40631606  0.51077296  0.53966741     0.31800
H912        H  0.40612319  0.48833349  0.48318513     0.33500
H913        H  0.45624970  0.46699730  0.41669633     0.32500
H914        H  0.50263700  0.57727555  0.54671704     0.36500
H915        H  0.48845373  0.58446329  0.48657172     0.29200
H916        H  0.50585591  0.41636929  0.58663016     0.33500
H917        H  0.49961205  0.42126525  0.42723731     0.36300
H918        H  0.42278538  0.50349147  0.56891496     0.28900
H919        H  0.51599039  0.58490369  0.48109669     0.41800
H920        H  0.57649560  0.50588060  0.56798779     0.31800
H921        H  0.54595629  0.53124849  0.60024025     0.39500
H922        H  0.45348779  0.44744182  0.44381363     0.31300
H923        H  0.57296746  0.46306890  0.47001059     0.31400
H924        H  0.50517938  0.40958877  0.54944146     0.31600
Zr925      Zr  0.99982947  0.46755421  0.20895118     2.17500
O926        O  0.00347987  0.42652122  0.18862189    -0.50700
O927        O  0.00085612  0.47729030  0.15094257    -0.73900
O928        O  0.96098980  0.44766381  0.20112029    -0.80700
O929        O  0.06702473  0.46821244  0.23037411    -0.82500
O930        O  0.93135483  0.47047488  0.22338080    -0.78100
O931        O  0.03772440  0.44554064  0.20698429    -0.89700
O932        O  0.00022421  0.51783075  0.14493129    -0.75700
O933        O  0.97431141  0.50156463  0.20274754    -0.85200
O934        O  0.02558609  0.50151305  0.20341489    -0.84900
O935        O  0.97606549  0.46848926  0.25800162    -0.71600
O936        O  0.02301598  0.46939309  0.25819254    -0.83700
Zr937      Zr  0.99885217  0.53990410  0.29539512     2.26400
Zr938      Zr  0.95093046  0.50319564  0.25176866     2.06300
Zr939      Zr  0.04822681  0.50385359  0.25285427     2.10000
Zr940      Zr  0.00010586  0.53554471  0.19834226     1.78800
O941        O  0.07912249  0.48862068  0.28930254    -0.92500
O942        O  0.96571864  0.55315435  0.17054060    -0.40400
O943        O  0.02323022  0.53847272  0.24720363    -0.77000
O944        O  0.97572155  0.53808645  0.24606108    -0.95700
O945        O  0.97362865  0.50567678  0.30092973    -0.89000
O946        O  0.02469879  0.50606825  0.30144313    -0.91800
C947        C  0.00068527  0.49647700  0.13367541     1.01900
C948        C  0.05955618  0.44937646  0.21557570     1.14900
C949        C  0.93890502  0.45196300  0.20797998     1.05600
O950        O  0.91958517  0.52036444  0.21765656    -0.94000
O951        O  0.93125989  0.53605820  0.28001313    -0.89700
O952        O  0.95963253  0.55725100  0.30783180    -0.82900
C953        C  0.93794386  0.55329034  0.29865864     1.12300
O954        O  0.00041846  0.42823859  0.30790404    -0.96000
Zr955      Zr  0.99941249  0.47201083  0.30671232     1.88900
O956        O  0.99707620  0.53178492  0.35363066    -0.72600
O957        O  0.92316366  0.48469389  0.29007423    -0.51900
O958        O  0.96395577  0.45534734  0.33311837    -0.96500
O959        O  0.03509795  0.45601913  0.33337585    -0.53800
O960        O  0.99721052  0.49115361  0.35964428    -0.73100
C961        C  0.99650694  0.51258898  0.37088900     0.99200
O962        O  0.99916627  0.58380773  0.29673652    -0.61900
O963        O  0.07716154  0.52033744  0.21432620    -0.56700
O964        O  0.03753945  0.55722578  0.31016452    -0.93400
O965        O  0.06637478  0.53753633  0.28115818    -0.91800
O966        O  0.03643816  0.55132614  0.17326116    -0.92200
O967        O  0.00070225  0.57926913  0.19745983    -0.91000
C968        C  0.05929164  0.55402156  0.30074921     1.18100
H969        H  0.03606840  0.49983316  0.18485932     0.34000
H970        H  0.96594629  0.55231764  0.24390628     0.44900
H971        H  0.03492943  0.50782318  0.32031220     0.38400
H972        H  0.96663636  0.45408792  0.26042956     0.34900
H973        H  0.97226762  0.55958480  0.14986393     0.26700
H974        H  0.90723780  0.48617147  0.27957573     0.32600
H975        H  0.96903694  0.45172844  0.35570654     0.38500
H976        H  0.03125955  0.55722211  0.15162316     0.33000
H977        H  0.09280498  0.51914460  0.22563690     0.31800
H978        H  0.09441685  0.49446757  0.27994096     0.33500
H979        H  0.04010619  0.46852904  0.34909933     0.32500
H980        H  0.00071391  0.58402274  0.22069862     0.36500
H981        H  0.01287896  0.58866824  0.28287977     0.29200
H982        H  0.99378850  0.42586160  0.16840210     0.33500
H983        H  0.00010301  0.42372959  0.33123998     0.36300
H984        H  0.07823274  0.50839653  0.19652032     0.28900
H985        H  0.98503309  0.58898337  0.28392755     0.41800
H986        H  0.92355804  0.51508894  0.19526178     0.31800
H987        H  0.95582918  0.53927810  0.16376622     0.39500
H988        H  0.04765267  0.45625683  0.31631295     0.31300
H989        H  0.92684453  0.46732207  0.28921532     0.31400
H990        H  0.99480688  0.41629684  0.20443429     0.31600
Zr991      Zr  0.00027474  0.53951495  0.79343735     2.17500
O992        O  0.00402590  0.58222125  0.80583164    -0.50700
O993        O  0.99962930  0.53157624  0.85189800    -0.73900
O994        O  0.96163560  0.55953984  0.80180999    -0.80700
O995        O  0.06781748  0.53739107  0.77386159    -0.82500
O996        O  0.93203246  0.53703802  0.77882050    -0.78100
O997        O  0.03896125  0.55969610  0.79895898    -0.89700
O998        O  0.99861506  0.49116753  0.85951383    -0.75700
O999        O  0.97443517  0.50591418  0.80103023    -0.85200
O1000       O  0.02574518  0.50548683  0.80065522    -0.84900
O1001       O  0.97642202  0.53737385  0.74460549    -0.71600
O1002       O  0.02381437  0.53642575  0.74457597    -0.83700
Zr1003     Zr  0.99891025  0.46552680  0.71001116     2.26400
Zr1004     Zr  0.95098420  0.50306519  0.75229618     2.06300
Zr1005     Zr  0.04863442  0.50183915  0.75151776     2.10000
Zr1006     Zr  0.99986427  0.47187234  0.80698434     1.78800
O1007       O  0.07979839  0.51610256  0.71474661    -0.92500
O1008       O  0.96541360  0.45422093  0.83459576    -0.40400
O1009       O  0.02309569  0.46774928  0.75833526    -0.77000
O1010       O  0.97567555  0.46829582  0.75916426    -0.95700
O1011       O  0.97389438  0.49975506  0.70338405    -0.89000
O1012       O  0.02515337  0.49894083  0.70293240    -0.91800
C1013       C  0.99888879  0.51278183  0.86992039     1.01900
C1014       C  0.06069199  0.55581783  0.78992561     1.14900
C1015       C  0.93959202  0.55537967  0.79460778     1.05600
O1016       O  0.92228941  0.48593541  0.79059731    -0.94000
O1017       O  0.93134948  0.46988096  0.72443901    -0.89700
O1018       O  0.95978663  0.44844594  0.69703750    -0.82900
C1019       C  0.93807976  0.45254162  0.70595640     1.12300
O1020       O  0.00170763  0.57673568  0.69732008    -0.96000
Zr1021     Zr  0.00002407  0.53302208  0.69637801     1.88900
O1022       O  0.99702608  0.47270863  0.65146833    -0.72600
O1023       O  0.92140258  0.51965436  0.71484323    -0.51900
O1024       O  0.96508948  0.54974770  0.66882470    -0.96500
O1025       O  0.03461464  0.54822944  0.66644471    -0.53800
O1026       O  0.99759560  0.51320070  0.64415301    -0.73100
C1027       C  0.99654895  0.49161940  0.63361868     0.99200
O1028       O  0.99769789  0.42160333  0.71011332    -0.61900
O1029       O  0.07709650  0.48512974  0.79048963    -0.56700
O1030       O  0.03745239  0.44737130  0.69671993    -0.93400
O1031       O  0.06661853  0.46737819  0.72467313    -0.91800
O1032       O  0.03553727  0.45653435  0.83415765    -0.92200
O1033       O  0.00098787  0.42820833  0.80900844    -0.91000
C1034       C  0.05923929  0.45046020  0.70597615     1.18100
H1035       H  0.03608255  0.50750117  0.81930097     0.34000
H1036       H  0.96585543  0.45412620  0.76169838     0.44900
H1037       H  0.03538381  0.49670816  0.68415074     0.38400
H1038       H  0.96704945  0.55176506  0.74169673     0.34900
H1039       H  0.97186488  0.44805501  0.85547039     0.26700
H1040       H  0.90604479  0.51918499  0.72696035     0.32600
H1041       H  0.97030421  0.55238116  0.64603674     0.38500
H1042       H  0.03012603  0.45246666  0.85646015     0.33000
H1043       H  0.09277223  0.48571287  0.77915826     0.31800
H1044       H  0.09491654  0.50953544  0.72375143     0.33500
H1045       H  0.04064182  0.53445476  0.65359141     0.32500
H1046       H  0.00287175  0.42319890  0.78600839     0.36500
H1047       H  0.01198039  0.41637472  0.72257686     0.29200
H1048       H  0.99552474  0.58471571  0.82677341     0.33500
H1049       H  0.00145938  0.58180708  0.67420376     0.36300
H1050       H  0.07848509  0.49729217  0.80797114     0.28900
H1051       H  0.98417577  0.41720641  0.72458502     0.41800
H1052       H  0.92410675  0.49552255  0.81076630     0.31800
H1053       H  0.95534072  0.46807099  0.84097886     0.39500
H1054       H  0.04702946  0.55087288  0.68332007     0.31300
H1055       H  0.92539996  0.53692838  0.71321957     0.31400
H1056       H  0.99421805  0.59068855  0.78935035     0.31600
C1057       C  0.99250253  0.50831709  0.46925095     0.17600
C1058       C  0.98084481  0.48753428  0.48025580    -0.11500
C1059       C  0.98094043  0.48171149  0.51341215    -0.12300
C1060       C  0.99276599  0.49664136  0.53566309     0.19200
C1061       C  0.00417520  0.51755980  0.52470392    -0.14400
C1062       C  0.00407944  0.52337856  0.49157421    -0.12600
C1063       C  0.99328580  0.49086017  0.56980628     0.00200
C1064       C  0.99460040  0.48899747  0.59899700    -0.32700
C1065       C  0.99360599  0.51330150  0.43488088     0.01500
C1066       C  0.99489951  0.51481011  0.40563372    -0.34300
H1067       H  0.97194979  0.47569208  0.46314797     0.12600
H1068       H  0.97199224  0.46554679  0.52162073     0.12400
H1069       H  0.01330065  0.52926965  0.54176102     0.12300
H1070       H  0.01325627  0.53941034  0.48334990     0.11300
C1071       C  0.99952898  0.51093139  0.96850046     0.17600
C1072       C  0.02125189  0.50500506  0.98369649    -0.11500
C1073       C  0.02174951  0.49987957  0.01703365    -0.12300
C1074       C  0.00049615  0.50053137  0.03523298     0.19200
C1075       C  0.97880346  0.50659343  0.02007762    -0.14400
C1076       C  0.97830547  0.51171702  0.98674836    -0.12600
C1077       C  0.00101168  0.49596457  0.06967896     0.00200
C1078       C  0.00103445  0.49435789  0.09893103    -0.32700
C1079       C  0.99885747  0.51484040  0.93389961     0.01500
C1080       C  0.99862022  0.51570531  0.90458179    -0.34300
H1081       H  0.03773651  0.50417435  0.96973811     0.12600
H1082       H  0.03864869  0.49541162  0.02858482     0.12400
H1083       H  0.96230502  0.50734573  0.03401429     0.12300
H1084       H  0.96139071  0.51610422  0.97518494     0.11300
C1085       C  0.50407737  0.49117649  0.72782864     0.17600
C1086       C  0.52074120  0.50753896  0.74061602    -0.11500
C1087       C  0.51989044  0.51392095  0.77361325    -0.12300
C1088       C  0.50230761  0.50405450  0.79401135     0.19200
C1089       C  0.48577164  0.48755345  0.78127617    -0.14400
C1090       C  0.48662205  0.48117384  0.74829469    -0.12600
C1091       C  0.50174452  0.50995903  0.82825272     0.00200
C1092       C  0.50126139  0.51221261  0.85751852    -0.32700
C1093       C  0.50394421  0.48597262  0.69336677     0.01500
C1094       C  0.50331268  0.48441135  0.66401977    -0.34300
H1095       H  0.53422516  0.51554449  0.72501202     0.12600
H1096       H  0.53289637  0.52653476  0.78318691     0.12400
H1097       H  0.47221013  0.47963629  0.79684018     0.12300
H1098       H  0.47353706  0.46865111  0.73870018     0.11300
C1099       C  0.50062473  0.50782542  0.29433331     0.17600
C1100       C  0.52195414  0.50005697  0.27961207    -0.11500
C1101       C  0.52216381  0.49360949  0.24665595    -0.12300
C1102       C  0.50101642  0.49481278  0.22826245     0.19200
C1103       C  0.47967799  0.50256380  0.24300936    -0.14400
C1104       C  0.47946460  0.50899087  0.27597664    -0.12600
C1105       C  0.50145565  0.48957393  0.19386085     0.00200
C1106       C  0.50156857  0.48788340  0.16453745    -0.32700
C1107       C  0.50018523  0.51295294  0.32872120     0.01500
C1108       C  0.50001869  0.51429060  0.35804452    -0.34300
H1109       H  0.53836903  0.49883973  0.29365811     0.12600
H1110       H  0.53880845  0.48782519  0.23549722     0.12400
H1111       H  0.46325282  0.50375323  0.22898587     0.12300
H1112       H  0.46281137  0.51471895  0.28717237     0.11300
C1113       C  0.88717772  0.40190236  0.68777370     0.17600
C1114       C  0.89210227  0.38130514  0.66934900    -0.11500
C1115       C  0.87529668  0.36265887  0.66775359    -0.12300
C1116       C  0.85347192  0.36445866  0.68461301     0.19200
C1117       C  0.84854165  0.38509095  0.70299110    -0.14400
C1118       C  0.86534739  0.40374152  0.70457847    -0.12600
C1119       C  0.83588710  0.34550383  0.68202905     0.00200
C1120       C  0.82126792  0.32982627  0.67748597    -0.32700
C1121       C  0.90493338  0.42059724  0.69082839     0.01500
C1122       C  0.92001831  0.43568017  0.69595418    -0.34300
H1123       H  0.90896641  0.37959538  0.65641223     0.12600
H1124       H  0.87929758  0.34686567  0.65333654     0.12400
H1125       H  0.83171811  0.38677766  0.71602067     0.12300
H1126       H  0.86139323  0.41951251  0.71906958     0.11300
C1127       C  0.61269593  0.39443366  0.56394591     0.17600
C1128       C  0.60782423  0.37090332  0.57396412    -0.11500
C1129       C  0.62615846  0.35373725  0.57429425    -0.12300
C1130       C  0.64945665  0.35997712  0.56456552     0.19200
C1131       C  0.65430967  0.38351231  0.55446993    -0.14400
C1132       C  0.63596701  0.40067969  0.55412584    -0.12600
C1133       C  0.66847666  0.34246035  0.56640331     0.00200
C1134       C  0.68400301  0.32764899  0.57055277    -0.32700
C1135       C  0.59375026  0.41199869  0.56265468     0.01500
C1136       C  0.57831523  0.42696678  0.55927416    -0.34300
H1137       H  0.58988593  0.36582751  0.58145581     0.12600
H1138       H  0.62220775  0.33564180  0.58231371     0.12400
H1139       H  0.67225642  0.38861391  0.54705688     0.12300
H1140       H  0.63991067  0.41879595  0.54617127     0.11300
C1141       C  0.74725080  0.25296945  0.90652004     0.17600
C1142       C  0.74079054  0.27252856  0.88694589    -0.11500
C1143       C  0.74687695  0.27274477  0.85384365    -0.12300
C1144       C  0.75956002  0.25346277  0.84018467     0.19200
C1145       C  0.76612261  0.23397860  0.85980439    -0.14400
C1146       C  0.76003093  0.23375720  0.89287720    -0.12600
C1147       C  0.76455862  0.25305200  0.80572948     0.00200
C1148       C  0.76625070  0.25237367  0.77643202    -0.32700
C1149       C  0.74198537  0.25305461  0.94091286     0.01500
C1150       C  0.74040967  0.25292213  0.97023806    -0.34300
H1151       H  0.73111986  0.28759187  0.89726270     0.12600
H1152       H  0.74155902  0.28784469  0.83887001     0.12400
H1153       H  0.77578431  0.21890468  0.84949883     0.12300
H1154       H  0.76533540  0.21863980  0.90782669     0.11300
C1155       C  0.75094324  0.24927585  0.40597490     0.17600
C1156       C  0.76120452  0.26949910  0.39118300    -0.11500
C1157       C  0.76732206  0.26896983  0.35812428    -0.12300
C1158       C  0.76335510  0.24816992  0.33972390     0.19200
C1159       C  0.75329481  0.22786760  0.35456816    -0.14400
C1160       C  0.74717816  0.22839610  0.38763587    -0.12600
C1161       C  0.76816387  0.24814656  0.30524792     0.00200
C1162       C  0.76953342  0.24839042  0.27592917    -0.32700
C1163       C  0.74534005  0.24962682  0.44025933     0.01500
C1164       C  0.74318059  0.24972679  0.46951646    -0.34300
H1165       H  0.76444584  0.28566378  0.40518374     0.12600
H1166       H  0.77492926  0.28482034  0.34685791     0.12400
H1167       H  0.74998512  0.21173193  0.34053006     0.12300
H1168       H  0.73950192  0.21256978  0.39887570     0.11300
C1169       C  0.85425440  0.36315583  0.18792651     0.17600
C1170       C  0.87331515  0.36439515  0.16566525    -0.11500
C1171       C  0.89046950  0.38265696  0.16822602    -0.12300
C1172       C  0.88866338  0.39985347  0.19301443     0.19200
C1173       C  0.86962389  0.39861207  0.21532147    -0.14400
C1174       C  0.85245837  0.38033770  0.21276004    -0.12600
C1175       C  0.90646427  0.41856024  0.19582597     0.00200
C1176       C  0.92138631  0.43402636  0.19969216    -0.32700
C1177       C  0.83634708  0.34456763  0.18471121     0.01500
C1178       C  0.82151883  0.32915155  0.17983240    -0.34300
H1179       H  0.87487720  0.35128585  0.14627823     0.12600
H1180       H  0.90511450  0.38337393  0.15088848     0.12400
H1181       H  0.86804499  0.41176170  0.23465730     0.12300
H1182       H  0.83778235  0.37964619  0.23004927     0.11300
C1183       C  0.64808242  0.36208924  0.07310466     0.17600
C1184       C  0.65318904  0.38445541  0.05911595    -0.11500
C1185       C  0.63549548  0.40227328  0.05790221    -0.12300
C1186       C  0.61260145  0.39785544  0.07074938     0.19200
C1187       C  0.60752884  0.37554123  0.08488797    -0.14400
C1188       C  0.62522092  0.35772170  0.08609727    -0.12600
C1189       C  0.59409118  0.41584346  0.06819557     0.00200
C1190       C  0.57865616  0.43069381  0.06379295    -0.32700
C1191       C  0.66642275  0.34384952  0.07485144     0.01500
C1192       C  0.68183661  0.32879282  0.07805985    -0.34300
H1193       H  0.67081423  0.38810223  0.04913494     0.12600
H1194       H  0.63961269  0.41941505  0.04677277     0.12400
H1195       H  0.58987674  0.37187297  0.09476800     0.12300
H1196       H  0.62107239  0.34055311  0.09712166     0.11300
C1197       C  0.88782710  0.60532041  0.81271559     0.17600
C1198       C  0.89357941  0.62974682  0.81493423    -0.11500
C1199       C  0.87535068  0.64686693  0.81816514    -0.12300
C1200       C  0.85125862  0.63965429  0.81909963     0.19200
C1201       C  0.84550835  0.61522830  0.81681905    -0.14400
C1202       C  0.86373694  0.59810835  0.81360070    -0.12600
C1203       C  0.83252201  0.65719304  0.82357487     0.00200
C1204       C  0.81709748  0.67181823  0.82926195    -0.32700
C1205       C  0.90657208  0.58774786  0.80866295     0.01500
C1206       C  0.92200343  0.57301273  0.80361601    -0.34300
H1207       H  0.91212760  0.63554341  0.81413768     0.12600
H1208       H  0.88003886  0.66568491  0.82006716     0.12400
H1209       H  0.82696419  0.60942452  0.81767101     0.12300
H1210       H  0.85905416  0.57928451  0.81177018     0.11300
C1211       C  0.61270828  0.60035508  0.94934854     0.17600
C1212       C  0.63707872  0.59420256  0.94784552    -0.11500
C1213       C  0.65461719  0.61219009  0.94659922    -0.12300
C1214       C  0.64790692  0.63644504  0.94701964     0.19200
C1215       C  0.62354537  0.64258127  0.94882748    -0.14400
C1216       C  0.60601569  0.62460212  0.95006214    -0.12600
C1217       C  0.66588581  0.65499209  0.94418603     0.00200
C1218       C  0.68065629  0.67047983  0.93943222    -0.32700
C1219       C  0.59459957  0.58188114  0.95112369     0.01500
C1220       C  0.57927909  0.56682066  0.95502796    -0.34300
H1221       H  0.64250921  0.57553347  0.94755831     0.12600
H1222       H  0.67337208  0.60719280  0.94508104     0.12400
H1223       H  0.61809846  0.66124600  0.94904718     0.12300
H1224       H  0.58725660  0.62960292  0.95149866     0.11300
C1225       C  0.74412107  0.74904726  0.60074567     0.17600
C1226       C  0.74949758  0.72755518  0.61687964    -0.11500
C1227       C  0.75524145  0.72779764  0.65003899    -0.12300
C1228       C  0.75579313  0.74954869  0.66714584     0.19200
C1229       C  0.75058034  0.77106662  0.65096177    -0.14400
C1230       C  0.74482909  0.77082293  0.61779663    -0.12600
C1231       C  0.76020833  0.74961496  0.70166665     0.00200
C1232       C  0.76133445  0.74955944  0.73097922    -0.32700
C1233       C  0.73899627  0.74885906  0.56640432     0.01500
C1234       C  0.73717224  0.74878467  0.53715526    -0.34300
H1235       H  0.74923771  0.71064449  0.60384486     0.12600
H1236       H  0.75905310  0.71104122  0.66238100     0.12400
H1237       H  0.75076831  0.78796836  0.66402185     0.12300
H1238       H  0.74093511  0.78756847  0.60547337     0.11300
C1239       C  0.74162720  0.74792360  0.10056288     0.17600
C1240       C  0.72467496  0.74047294  0.12363198    -0.11500
C1241       C  0.73049632  0.74064573  0.15680478    -0.12300
C1242       C  0.75328952  0.74821286  0.16705861     0.19200
C1243       C  0.77021760  0.75568398  0.14399587    -0.14400
C1244       C  0.76439852  0.75551632  0.11084349    -0.12600
C1245       C  0.75887527  0.74876345  0.20131020     0.00200
C1246       C  0.76079542  0.74922309  0.23056925    -0.32700
C1247       C  0.73607442  0.74762847  0.06627662     0.01500
C1248       C  0.73438713  0.74782350  0.03697096    -0.34300
H1249       H  0.70703049  0.73455313  0.11601110     0.12600
H1250       H  0.71721867  0.73494113  0.17446960     0.12400
H1251       H  0.78783742  0.76167746  0.15161796     0.12300
H1252       H  0.77765700  0.76130280  0.09320357     0.11300
C1253       C  0.84854434  0.63673626  0.31988613     0.17600
C1254       C  0.84776282  0.61604634  0.33931850    -0.11500
C1255       C  0.86618608  0.59899973  0.33742422    -0.12300
C1256       C  0.88551310  0.60256361  0.31611551     0.19200
C1257       C  0.88626157  0.62323157  0.29666272    -0.14400
C1258       C  0.86784892  0.64026283  0.29854985    -0.12600
C1259       C  0.90422090  0.58477920  0.31332604     0.00200
C1260       C  0.91978807  0.57012492  0.30849605    -0.32700
C1261       C  0.83011666  0.65478962  0.32291549     0.01500
C1262       C  0.81522362  0.67013677  0.32769271    -0.34300
H1263       H  0.83300087  0.61316862  0.35604944     0.12600
H1264       H  0.86534441  0.58306651  0.35250015     0.12400
H1265       H  0.90105749  0.62615713  0.28000236     0.12300
H1266       H  0.86873811  0.65622559  0.28353649     0.11300
C1267       C  0.61313163  0.60000087  0.44942665     0.17600
C1268       C  0.63713893  0.59569541  0.45783805    -0.11500
C1269       C  0.65408095  0.61419266  0.45575371    -0.12300
C1270       C  0.64709436  0.63710109  0.44532210     0.19200
C1271       C  0.62311246  0.64138783  0.43687620    -0.14400
C1272       C  0.60618431  0.62290551  0.43895407    -0.12600
C1273       C  0.66464866  0.65592430  0.44191532     0.00200
C1274       C  0.67932941  0.67137590  0.43674362    -0.32700
C1275       C  0.59543331  0.58126472  0.45277321     0.01500
C1276       C  0.58028718  0.56616738  0.45756332    -0.34300
H1277       H  0.64272654  0.57810046  0.46611169     0.12600
H1278       H  0.67260272  0.61062035  0.46214518     0.12400
H1279       H  0.61752570  0.65897767  0.42857520     0.12300
H1280       H  0.58767510  0.62649529  0.43252699     0.11300
C1281       C  0.64346408  0.86201615  0.43323344     0.17600
C1282       C  0.64949256  0.88413707  0.44732056    -0.11500
C1283       C  0.63232465  0.90243619  0.44971228    -0.12300
C1284       C  0.60897032  0.89882508  0.43795989     0.19200
C1285       C  0.60294102  0.87671835  0.42377989    -0.14400
C1286       C  0.62012195  0.85839957  0.42139803    -0.12600
C1287       C  0.59116571  0.91761433  0.44113440     0.00200
C1288       C  0.57642437  0.93329056  0.44527803    -0.32700
C1289       C  0.66132104  0.84325418  0.43048906     0.01500
C1290       C  0.67655294  0.82795524  0.42718197    -0.34300
H1291       H  0.66746137  0.88724015  0.45646623     0.12600
H1292       H  0.63724921  0.91937844  0.46080800     0.12400
H1293       H  0.58496431  0.87362045  0.41466078     0.12300
H1294       H  0.61520596  0.84143867  0.41034518     0.11300
C1295       C  0.64732145  0.14029431  0.56942494     0.17600
C1296       C  0.65258681  0.11822085  0.55471592    -0.11500
C1297       C  0.63443121  0.10121522  0.54999008    -0.12300
C1298       C  0.61087186  0.10614720  0.55995656     0.19200
C1299       C  0.60560796  0.12822491  0.57474014    -0.14400
C1300       C  0.62378122  0.14524938  0.57946191    -0.12600
C1301       C  0.59210122  0.08877007  0.55421401     0.00200
C1302       C  0.57678184  0.07413237  0.54786728    -0.32700
C1303       C  0.66611041  0.15770265  0.57445028     0.01500
C1304       C  0.68188474  0.17213920  0.57915926    -0.34300
H1305       H  0.67070863  0.11416884  0.54688312     0.12600
H1306       H  0.63874270  0.08426749  0.53844289     0.12400
H1307       H  0.58747269  0.13230870  0.58247071     0.12300
H1308       H  0.61948353  0.16224638  0.59089316     0.11300
C1309       C  0.49892118  0.00865687  0.71039534     0.17600
C1310       C  0.48041576  0.99530193  0.72472617    -0.11500
C1311       C  0.48127407  0.98982000  0.75793246    -0.12300
C1312       C  0.50070679  0.99755964  0.77683357     0.19200
C1313       C  0.51921041  0.01090673  0.76247634    -0.14400
C1314       C  0.51835108  0.01638769  0.72928045    -0.12600
C1315       C  0.50108578  0.99297999  0.81126665     0.00200
C1316       C  0.50105168  0.99173063  0.84054571    -0.32700
C1317       C  0.49854933  0.01335053  0.67602588     0.01500
C1318       C  0.49868799  0.01497941  0.64680730    -0.34300
H1319       H  0.46540724  0.98907416  0.71022961     0.12600
H1320       H  0.46678505  0.97966696  0.76887499     0.12400
H1321       H  0.53421773  0.01715032  0.77695869     0.12300
H1322       H  0.53283356  0.02655199  0.71833542     0.11300
C1323       C  0.49604299  0.00130770  0.27683874     0.17600
C1324       C  0.51545417  0.99401089  0.25755551    -0.11500
C1325       C  0.51594523  0.99966655  0.22436455    -0.12300
C1326       C  0.49708325  0.01271801  0.21033909     0.19200
C1327       C  0.47768095  0.02002792  0.22964754    -0.14400
C1328       C  0.47719641  0.01438176  0.26284470    -0.12600
C1329       C  0.49711304  0.01734605  0.17583137     0.00200
C1330       C  0.49725323  0.01856821  0.14650048    -0.32700
C1331       C  0.49594721  0.99651443  0.31126224     0.01500
C1332       C  0.49597240  0.99496753  0.34053354    -0.34300
H1333       H  0.53020447  0.98405030  0.26817350     0.12600
H1334       H  0.53094514  0.99375258  0.20960358     0.12400
H1335       H  0.46290833  0.02995104  0.21903044     0.12300
H1336       H  0.46218815  0.02026725  0.27761439     0.11300
C1337       C  0.64563939  0.86182154  0.94592225     0.17600
C1338       C  0.62154564  0.85674343  0.93891778    -0.11500
C1339       C  0.60417403  0.87484256  0.94107605    -0.12300
C1340       C  0.61077333  0.89817720  0.95019213     0.19200
C1341       C  0.63485479  0.90323235  0.95735886    -0.14400
C1342       C  0.65223290  0.88512617  0.95519882    -0.12600
C1343       C  0.59285148  0.91684393  0.95248829     0.00200
C1344       C  0.57790978  0.93244260  0.95528722    -0.32700
C1345       C  0.66362900  0.84334601  0.94236325     0.01500
C1346       C  0.67847458  0.82798297  0.93728258    -0.34300
H1347       H  0.61622007  0.83884098  0.93157314     0.12600
H1348       H  0.58563206  0.87066048  0.93554426     0.12400
H1349       H  0.64020080  0.92116993  0.96451049     0.12300
H1350       H  0.67080087  0.88933332  0.96053561     0.11300
C1351       C  0.60821642  0.10909384  0.05964877     0.17600
C1352       C  0.60419983  0.13362463  0.05422326    -0.11500
C1353       C  0.62274024  0.15022979  0.05918140    -0.12300
C1354       C  0.64541563  0.14239456  0.06951495     0.19200
C1355       C  0.64935996  0.11790264  0.07509603    -0.14400
C1356       C  0.63084997  0.10132167  0.07013811    -0.12600
C1357       C  0.66464270  0.15938072  0.07443109     0.00200
C1358       C  0.68074800  0.17347706  0.07914441    -0.32700
C1359       C  0.58942444  0.09177872  0.05372157     0.01500
C1360       C  0.57435401  0.07684915  0.04757385    -0.34300
H1361       H  0.58681641  0.13988442  0.04601636     0.12600
H1362       H  0.61943199  0.16912156  0.05484159     0.12400
H1363       H  0.66677098  0.11161206  0.08314804     0.12300
H1364       H  0.63422526  0.08242511  0.07432146     0.11300
C1365       C  0.11161183  0.60667192  0.80966143     0.17600
C1366       C  0.13359055  0.60006185  0.82364079    -0.11500
C1367       C  0.15134983  0.61736459  0.82915584    -0.12300
C1368       C  0.14725355  0.64138693  0.82069701     0.19200
C1369       C  0.12526392  0.64802441  0.80680274    -0.14400
C1370       C  0.10750490  0.63071820  0.80127483    -0.12600
C1371       C  0.16559474  0.65917395  0.82624361     0.00200
C1372       C  0.18100344  0.67394636  0.83122936    -0.32700
C1373       C  0.09343170  0.58875965  0.80357568     0.01500
C1374       C  0.07839207  0.57370587  0.79787764    -0.34300
H1375       H  0.13701595  0.58154243  0.83018610     0.12600
H1376       H  0.16826857  0.61201075  0.83993531     0.12400
H1377       H  0.12187678  0.66653932  0.80018539     0.12300
H1378       H  0.09062038  0.63606841  0.79040262     0.11300
C1379       C  0.35584024  0.64048967  0.94098624     0.17600
C1380       C  0.35529714  0.62601558  0.96889191    -0.11500
C1381       C  0.37256182  0.60803983  0.97321985    -0.12300
C1382       C  0.39042382  0.60443425  0.94964123     0.19200
C1383       C  0.39107239  0.61903675  0.92189340    -0.14400
C1384       C  0.37382081  0.63699359  0.91756577    -0.12600
C1385       C  0.40807683  0.58581070  0.95397126     0.00200
C1386       C  0.42281478  0.57035889  0.95883190    -0.32700
C1387       C  0.33774237  0.65858524  0.93586653     0.01500
C1388       C  0.32279151  0.67357652  0.92966643    -0.34300
H1389       H  0.34148195  0.62852779  0.98715424     0.12600
H1390       H  0.37192609  0.59690404  0.99483800     0.12400
H1391       H  0.40483044  0.61647296  0.90356451     0.12300
H1392       H  0.37441566  0.64805397  0.89587667     0.11300
C1393       C  0.35460284  0.86369744  0.93453892     0.17600
C1394       C  0.37740879  0.85913026  0.92150853    -0.11500
C1395       C  0.39498941  0.87705276  0.92184152    -0.12300
C1396       C  0.38978149  0.89962931  0.93511986     0.19200
C1397       C  0.36696971  0.90418443  0.94808698    -0.14400
C1398       C  0.34940153  0.88628046  0.94774188    -0.12600
C1399       C  0.40799063  0.91788583  0.93676047     0.00200
C1400       C  0.42281826  0.93332564  0.94091749    -0.32700
C1401       C  0.33632655  0.84550164  0.93316794     0.01500
C1402       C  0.32121547  0.83030137  0.92931375    -0.34300
H1403       H  0.38156019  0.84176239  0.91104338     0.12600
H1404       H  0.41260707  0.87329040  0.91190585     0.12400
H1405       H  0.36280792  0.92154074  0.95857532     0.12300
H1406       H  0.33178831  0.89005445  0.95768064     0.11300
C1407       C  0.24720888  0.75210014  0.65763368     0.17600
C1408       C  0.25085319  0.73044131  0.64098997    -0.11500
C1409       C  0.25677792  0.73062088  0.60788085    -0.12300
C1410       C  0.25920535  0.75245962  0.59130494     0.19200
C1411       C  0.25546012  0.77412105  0.60789461    -0.14400
C1412       C  0.24953561  0.77394237  0.64101539    -0.12600
C1413       C  0.26421240  0.75255576  0.55692644     0.00200
C1414       C  0.26588281  0.75229529  0.52766119    -0.32700
C1415       C  0.24260457  0.75193999  0.69214289     0.01500
C1416       C  0.24131852  0.75175403  0.72146614    -0.34300
H1417       H  0.24928985  0.71345446  0.65364912     0.12600
H1418       H  0.25940482  0.71376323  0.59520292     0.12400
H1419       H  0.25706181  0.79110296  0.59523004     0.12300
H1420       H  0.24694599  0.79080014  0.65370165     0.11300
C1421       C  0.24884535  0.74922223  0.15762508     0.17600
C1422       C  0.24865020  0.77082754  0.14018656    -0.11500
C1423       C  0.25464947  0.77100505  0.10711091    -0.12300
C1424       C  0.26102930  0.74961550  0.09138704     0.19200
C1425       C  0.26124150  0.72800140  0.10880769    -0.14400
C1426       C  0.25523556  0.72782253  0.14189718    -0.12600
C1427       C  0.26592346  0.74973296  0.05699808     0.00200
C1428       C  0.26728500  0.75014766  0.02771847    -0.32700
C1429       C  0.24372890  0.74916600  0.19198741     0.01500
C1430       C  0.24196536  0.74907438  0.22125597    -0.34300
H1431       H  0.24393860  0.78750732  0.15216019     0.12600
H1432       H  0.25420044  0.78777406  0.09376706     0.12400
H1433       H  0.26592030  0.71132264  0.09680282     0.12300
H1434       H  0.25564197  0.71104783  0.15522644     0.11300
C1435       C  0.14667002  0.63842080  0.32772816     0.17600
C1436       C  0.15251894  0.61559618  0.31575293    -0.11500
C1437       C  0.13480234  0.59789695  0.31308641    -0.12300
C1438       C  0.11112909  0.60290729  0.32243712     0.19200
C1439       C  0.10529300  0.62568507  0.33455442    -0.14400
C1440       C  0.12301543  0.64338307  0.33724267    -0.12600
C1441       C  0.09263905  0.58511052  0.31807177     0.00200
C1442       C  0.07715773  0.57066344  0.31192757    -0.32700
C1443       C  0.16499404  0.65659467  0.33058840     0.01500
C1444       C  0.18055161  0.67149503  0.33384828    -0.34300
H1445       H  0.17073933  0.61151754  0.30838752     0.12600
H1446       H  0.13951246  0.58040387  0.30348083     0.12400
H1447       H  0.08702564  0.62981506  0.34165187     0.12300
H1448       H  0.11826200  0.66093015  0.34661219     0.11300
C1449       C  0.39070812  0.60323821  0.44983691     0.17600
C1450       C  0.39634601  0.62738701  0.45557543    -0.11500
C1451       C  0.37895808  0.64518545  0.45094243    -0.12300
C1452       C  0.35582083  0.63891638  0.44062721     0.19200
C1453       C  0.35021397  0.61477532  0.43476718    -0.14400
C1454       C  0.36760014  0.59697832  0.43939995    -0.12600
C1455       C  0.33797906  0.65723458  0.43537802     0.00200
C1456       C  0.32309036  0.67233701  0.42943140    -0.32700
C1457       C  0.40851934  0.58490628  0.45513637     0.01500
C1458       C  0.42340574  0.56972261  0.46066419    -0.34300
H1459       H  0.41414693  0.63243850  0.46367273     0.12600
H1460       H  0.38354799  0.66379621  0.45537427     0.12400
H1461       H  0.33242782  0.60972571  0.42660839     0.12300
H1462       H  0.36302285  0.57837193  0.43490701     0.11300
C1463       C  0.38744451  0.90017023  0.43893864     0.17600
C1464       C  0.36796688  0.90030776  0.46058834    -0.11500
C1465       C  0.35058736  0.88219071  0.45906289    -0.12300
C1466       C  0.35262964  0.86380119  0.43592741     0.19200
C1467       C  0.37204797  0.86374669  0.41418697    -0.14400
C1468       C  0.38941791  0.88185093  0.41571408    -0.12600
C1469       C  0.33468207  0.84520363  0.43389831     0.00200
C1470       C  0.31999427  0.82958823  0.42959688    -0.32700
C1471       C  0.40554621  0.91859517  0.44098811     0.01500
C1472       C  0.42055832  0.93399304  0.44449131    -0.34300
H1473       H  0.36625523  0.91437327  0.47867633     0.12600
H1474       H  0.33560430  0.88251941  0.47587987     0.12400
H1475       H  0.37375824  0.84970487  0.39606608     0.12300
H1476       H  0.40438672  0.88153127  0.39887053     0.11300
C1477       C  0.10824457  0.39882718  0.68335531     0.17600
C1478       C  0.10037522  0.37592855  0.67409441    -0.11500
C1479       C  0.11697770  0.35739382  0.66948068    -0.12300
C1480       C  0.14151494  0.36165885  0.67419978     0.19200
C1481       C  0.14938078  0.38456922  0.68338287    -0.14400
C1482       C  0.13278326  0.40309708  0.68800086    -0.12600
C1483       C  0.15865356  0.34267843  0.66911988     0.00200
C1484       C  0.17321664  0.32716922  0.66369261    -0.32700
C1485       C  0.09111489  0.41771488  0.68908469     0.01500
C1486       C  0.07664972  0.43309573  0.69556230    -0.34300
H1487       H  0.08143402  0.37239009  0.67058447     0.12600
H1488       H  0.11069891  0.33977105  0.66227885     0.12400
H1489       H  0.16831388  0.38809232  0.68699614     0.12300
H1490       H  0.13906006  0.42069557  0.69531261     0.11300
C1491       C  0.38835575  0.39319351  0.56110811     0.17600
C1492       C  0.39426580  0.36884872  0.56433674    -0.11500
C1493       C  0.37609385  0.35156844  0.56665531    -0.12300
C1494       C  0.35192964  0.35854483  0.56568362     0.19200
C1495       C  0.34604514  0.38287860  0.56251178    -0.14400
C1496       C  0.36419575  0.40013912  0.56019898    -0.12600
C1497       C  0.33316042  0.34084516  0.56829670     0.00200
C1498       C  0.31730307  0.32626885  0.57139197    -0.32700
C1499       C  0.40696341  0.41104716  0.55808516     0.01500
C1500       C  0.42210312  0.42630464  0.55434070    -0.34300
H1501       H  0.41287427  0.36323821  0.56497815     0.12600
H1502       H  0.38087005  0.33281206  0.56918131     0.12400
H1503       H  0.32744088  0.38850085  0.56181122     0.12300
H1504       H  0.35939586  0.41888435  0.55761889     0.11300
C1505       C  0.34909940  0.13757769  0.56159181     0.17600
C1506       C  0.37149032  0.14203526  0.57594464    -0.11500
C1507       C  0.38942048  0.12444138  0.57533578    -0.12300
C1508       C  0.38504889  0.10222628  0.56047834     0.19200
C1509       C  0.36259799  0.09768618  0.54632238    -0.14400
C1510       C  0.34465806  0.11528725  0.54693495    -0.12600
C1511       C  0.40388761  0.08453571  0.55832373     0.00200
C1512       C  0.41958216  0.06999670  0.55362631    -0.32700
C1513       C  0.33062464  0.15572543  0.56259454     0.01500
C1514       C  0.31531056  0.17092023  0.56557162    -0.34300
H1515       H  0.37510716  0.15913568  0.58751407     0.12600
H1516       H  0.40672709  0.12822800  0.58620000     0.12400
H1517       H  0.35903649  0.08062943  0.53459549     0.12300
H1518       H  0.32739315  0.11155020  0.53591662     0.11300
C1519       C  0.23669559  0.25191832  0.83003419     0.17600
C1520       C  0.22561900  0.26854318  0.85074367    -0.11500
C1521       C  0.23127563  0.26882036  0.88394534    -0.12300
C1522       C  0.24808288  0.25254272  0.89651951     0.19200
C1523       C  0.25917975  0.23595949  0.87577937    -0.14400
C1524       C  0.25351565  0.23567305  0.84260358    -0.12600
C1525       C  0.25296666  0.25217589  0.93093157     0.00200
C1526       C  0.25457216  0.25179307  0.96020665    -0.32700
C1527       C  0.23174431  0.25203844  0.79565869     0.01500
C1528       C  0.23033147  0.25176961  0.76637805    -0.34300
H1529       H  0.21270697  0.28128072  0.84124247     0.12600
H1530       H  0.22246931  0.28161958  0.89983151     0.12400
H1531       H  0.27207651  0.22320090  0.88526246     0.12300
H1532       H  0.26229575  0.22284400  0.82673228     0.11300
C1533       C  0.23970984  0.24923913  0.33038974     0.17600
C1534       C  0.22614405  0.23466611  0.35117846    -0.11500
C1535       C  0.23138139  0.23399343  0.38446721    -0.12300
C1536       C  0.25025694  0.24781136  0.39702554     0.19200
C1537       C  0.26387949  0.26231212  0.37622606    -0.14400
C1538       C  0.25863653  0.26299291  0.34294332    -0.12600
C1539       C  0.25481500  0.24786091  0.43145287     0.00200
C1540       C  0.25613316  0.24810524  0.46071298    -0.32700
C1541       C  0.23482599  0.24960979  0.29602577     0.01500
C1542       C  0.23311677  0.24991666  0.26678806    -0.34300
H1543       H  0.21156937  0.22386780  0.34167842     0.12600
H1544       H  0.22064401  0.22283384  0.40043001     0.12400
H1545       H  0.27840732  0.27316566  0.38574615     0.12300
H1546       H  0.26932157  0.27422129  0.32700752     0.11300
C1547       C  0.10995286  0.39742004  0.19906628     0.17600
C1548       C  0.10361083  0.37309024  0.20015214    -0.11500
C1549       C  0.12094412  0.35536683  0.19457276    -0.12300
C1550       C  0.14475368  0.36184578  0.18795757     0.19200
C1551       C  0.15115596  0.38617310  0.18716092    -0.14400
C1552       C  0.13381622  0.40390410  0.19274692    -0.12600
C1553       C  0.16237023  0.34358243  0.18091101     0.00200
C1554       C  0.17675091  0.32833906  0.17337641    -0.32700
C1555       C  0.09196376  0.41568190  0.20417823     0.01500
C1556       C  0.07698429  0.43098872  0.20879132    -0.34300
H1557       H  0.08524819  0.36783194  0.20506653     0.12600
H1558       H  0.11574318  0.33663699  0.19514023     0.12400
H1559       H  0.16947763  0.39142870  0.18195720     0.12300
H1560       H  0.13897031  0.42264123  0.19189815     0.11300
C1561       C  0.38818988  0.39556666  0.06501382     0.17600
C1562       C  0.39228736  0.37222185  0.05354900    -0.11500
C1563       C  0.37402862  0.35500362  0.05504172    -0.12300
C1564       C  0.35153511  0.36103048  0.06794497     0.19200
C1565       C  0.34745051  0.38436689  0.07949389    -0.14400
C1566       C  0.36571644  0.40159022  0.07800283    -0.12600
C1567       C  0.33279247  0.34321438  0.06978010     0.00200
C1568       C  0.31712938  0.32836584  0.07248609    -0.32700
C1569       C  0.40676034  0.41349187  0.06238410     0.01500
C1570       C  0.42202620  0.42857463  0.05833322    -0.34300
H1571       H  0.40954139  0.36737225  0.04331058     0.12600
H1572       H  0.37743662  0.33702414  0.04611161     0.12400
H1573       H  0.33016216  0.38924475  0.08960086     0.12300
H1574       H  0.36228425  0.41960171  0.08680275     0.11300
C1575       C  0.34814157  0.13947099  0.05675326     0.17600
C1576       C  0.37237581  0.14554999  0.06068148    -0.11500
C1577       C  0.39005496  0.12771633  0.05944949    -0.12300
C1578       C  0.38360471  0.10367978  0.05439969     0.19200
C1579       C  0.35934934  0.09759084  0.05068915    -0.14400
C1580       C  0.34167034  0.11542464  0.05192685    -0.12600
C1581       C  0.40191399  0.08547151  0.05158417     0.00200
C1582       C  0.41738317  0.07066472  0.04694916    -0.32700
C1583       C  0.32990304  0.15778272  0.05856777     0.01500
C1584       C  0.31462959  0.17291519  0.06216768    -0.34300
H1585       H  0.37759669  0.16405326  0.06463918     0.12600
H1586       H  0.40874069  0.13268371  0.06219956     0.12400
H1587       H  0.35412702  0.07910391  0.04661745     0.12300
H1588       H  0.32298720  0.11047703  0.04907135     0.11300
C1589       C  0.85593155  0.13833267  0.68923122     0.17600
C1590       C  0.84881186  0.11494924  0.69736845    -0.11500
C1591       C  0.86597870  0.09673718  0.70069479    -0.12300
C1592       C  0.89037383  0.10177733  0.69582539     0.19200
C1593       C  0.89748199  0.12514993  0.68772250    -0.14400
C1594       C  0.88032844  0.14335147  0.68441233    -0.12600
C1595       C  0.90809747  0.08303070  0.69908313     0.00200
C1596       C  0.92291080  0.06736349  0.70217666    -0.32700
C1597       C  0.83820961  0.15695164  0.68460470     0.01500
C1598       C  0.82350494  0.17230619  0.67872629    -0.34300
H1599       H  0.83000747  0.11077187  0.70093502     0.12600
H1600       H  0.86023078  0.07874056  0.70693114     0.12400
H1601       H  0.91626423  0.12928068  0.68385217     0.12300
H1602       H  0.88607291  0.16129184  0.67789183     0.11300
C1603       C  0.85317258  0.85969389  0.82402601     0.17600
C1604       C  0.84742004  0.88396369  0.81967267    -0.11500
C1605       C  0.86561062  0.90080971  0.81423590    -0.12300
C1606       C  0.88966437  0.89349708  0.81318200     0.19200
C1607       C  0.89543622  0.86924507  0.81776475    -0.14400
C1608       C  0.87723934  0.85239341  0.82320141    -0.12600
C1609       C  0.90827391  0.91074075  0.80627067     0.00200
C1610       C  0.92350766  0.92514324  0.79885415    -0.32700
C1611       C  0.83444103  0.84234285  0.82965377     0.01500
C1612       C  0.81898774  0.82774966  0.83529276    -0.34300
H1613       H  0.82889437  0.88984012  0.82036691     0.12600
H1614       H  0.86091451  0.91948831  0.81062473     0.12400
H1615       H  0.91395292  0.86335137  0.81690329     0.12300
H1616       H  0.88191761  0.83369158  0.82664339     0.11300
C1617       C  0.11565148  0.89800450  0.80792796     0.17600
C1618       C  0.13399501  0.89658634  0.78462405    -0.11500
C1619       C  0.15190779  0.87913964  0.78752788    -0.12300
C1620       C  0.15148981  0.86304781  0.81372448     0.19200
C1621       C  0.13322130  0.86457212  0.83710248    -0.14400
C1622       C  0.11531989  0.88200229  0.83419694    -0.12600
C1623       C  0.16979043  0.84502617  0.81695074     0.00200
C1624       C  0.18473444  0.82984059  0.82188836    -0.32700
C1625       C  0.09673840  0.91529843  0.80412639     0.01500
C1626       C  0.08086708  0.92936657  0.79855065    -0.34300
H1627       H  0.13433543  0.90883019  0.76412486     0.12600
H1628       H  0.16597763  0.87813922  0.76935575     0.12400
H1629       H  0.13277415  0.85223067  0.85748624     0.12300
H1630       H  0.10115838  0.88288581  0.85224805     0.11300
C1631       C  0.11036805  0.10063020  0.68711440     0.17600
C1632       C  0.10383208  0.12448574  0.68087607    -0.11500
C1633       C  0.12146269  0.14234314  0.67899856    -0.12300
C1634       C  0.14571470  0.13647110  0.68343859     0.19200
C1635       C  0.15219401  0.11268072  0.69016017    -0.14400
C1636       C  0.13457178  0.09483263  0.69203625    -0.12600
C1637       C  0.16395088  0.15460636  0.67932880     0.00200
C1638       C  0.17868143  0.16987519  0.67330261    -0.32700
C1639       C  0.09232870  0.08211433  0.68898393     0.01500
C1640       C  0.07763123  0.06638504  0.69233943    -0.34300
H1641       H  0.08517160  0.12924210  0.67724993     0.12600
H1642       H  0.11622510  0.16065422  0.67368380     0.12400
H1643       H  0.17086592  0.10787982  0.69353919     0.12300
H1644       H  0.13982955  0.07648978  0.69710018     0.11300
C1645       C  0.00210340  0.99906028  0.52397445     0.17600
C1646       C  0.99260619  0.01526022  0.50131886    -0.11500
C1647       C  0.99300826  0.00970881  0.46806683    -0.12300
C1648       C  0.00285391  0.98792791  0.45730278     0.19200
C1649       C  0.01243715  0.97177603  0.47995467    -0.14400
C1650       C  0.01202711  0.97732334  0.51320424    -0.12600
C1651       C  0.00329108  0.98254858  0.42296229     0.00200
C1652       C  0.00318901  0.98082500  0.39365919    -0.32700
C1653       C  0.00125681  0.00421784  0.55834900     0.01500
C1654       C  0.00084371  0.00575887  0.58765745    -0.34300
H1655       H  0.98483128  0.03207759  0.50933684     0.12600
H1656       H  0.98561883  0.02237850  0.45074229     0.12400
H1657       H  0.02016785  0.95493632  0.47194991     0.12300
H1658       H  0.01935924  0.96462729  0.53053873     0.11300
C1659       C  0.00368952  0.98811337  0.95767405     0.17600
C1660       C  0.02099301  0.97800258  0.97823944    -0.11500
C1661       C  0.02140659  0.98404120  0.01132556    -0.12300
C1662       C  0.00460123  0.00031166  0.02395609     0.19200
C1663       C  0.98728283  0.01039863  0.00338592    -0.14400
C1664       C  0.98686949  0.00436128  0.97030679    -0.12600
C1665       C  0.00448220  0.00565527  0.05828167     0.00200
C1666       C  0.00413560  0.00742687  0.08755739    -0.32700
C1667       C  0.00372733  0.98275581  0.92336916     0.01500
C1668       C  0.00352009  0.98097394  0.89410445    -0.34300
H1669       H  0.03417151  0.96554814  0.96870011     0.12600
H1670       H  0.03475687  0.97596888  0.02707123     0.12400
H1671       H  0.97408289  0.02283175  0.01292195     0.12300
H1672       H  0.97350059  0.01241270  0.95456672     0.11300
C1673       C  0.89110778  0.10171695  0.19068016     0.17600
C1674       C  0.89797264  0.12592721  0.19153384    -0.11500
C1675       C  0.88070852  0.14402954  0.18818549    -0.12300
C1676       C  0.85647712  0.13804021  0.18401165     0.19200
C1677       C  0.84959831  0.11385321  0.18325519    -0.14400
C1678       C  0.86685419  0.09575824  0.18659361    -0.12600
C1679       C  0.83882424  0.15664035  0.17934459     0.00200
C1680       C  0.82415330  0.17202729  0.17374629    -0.32700
C1681       C  0.90883729  0.08299098  0.19429775     0.01500
C1682       C  0.92347640  0.06722453  0.19809785    -0.34300
H1683       H  0.91664468  0.13080088  0.19470986     0.12600
H1684       H  0.88626133  0.16266189  0.18864584     0.12400
H1685       H  0.83094004  0.10898622  0.17988071     0.12300
H1686       H  0.86129748  0.07713394  0.18592142     0.11300
C1687       C  0.89024161  0.89324846  0.30881596     0.17600
C1688       C  0.86611882  0.89871448  0.30251691    -0.11500
C1689       C  0.84821730  0.88156225  0.30822095    -0.12300
C1690       C  0.85429149  0.85879942  0.32021802     0.19200
C1691       C  0.87841775  0.85336485  0.32659424    -0.14400
C1692       C  0.89631996  0.87051549  0.32088048    -0.12600
C1693       C  0.83578163  0.84115221  0.32624240     0.00200
C1694       C  0.82032735  0.82652226  0.33209031    -0.32700
C1695       C  0.90876693  0.91072394  0.30222455     0.01500
C1696       C  0.92416693  0.92515717  0.29544730    -0.34300
H1697       H  0.86116005  0.91618524  0.29309610     0.12600
H1698       H  0.82965830  0.88603643  0.30324429     0.12400
H1699       H  0.88339179  0.83587682  0.33593237     0.12300
H1700       H  0.91489106  0.86602591  0.32575902     0.11300
C1701       C  0.14999871  0.86044368  0.31410709     0.17600
C1702       C  0.12590279  0.85396902  0.30982282    -0.11500
C1703       C  0.10822719  0.87172198  0.30727842    -0.12300
C1704       C  0.11455239  0.89604129  0.30911033     0.19200
C1705       C  0.13860228  0.90249576  0.31378141    -0.14400
C1706       C  0.15627313  0.88475016  0.31630086    -0.12600
C1707       C  0.09660617  0.91433981  0.30443233     0.00200
C1708       C  0.08160779  0.92925575  0.29815189    -0.32700
C1709       C  0.16819798  0.84218790  0.31703231     0.01500
C1710       C  0.18337636  0.82708743  0.32145128    -0.34300
H1711       H  0.12081011  0.83523634  0.30830778     0.12600
H1712       H  0.08970286  0.86650406  0.30353014     0.12400
H1713       H  0.14371884  0.92122854  0.31510051     0.12300
H1714       H  0.17481671  0.88997778  0.31982127     0.11300
C1715       C  0.14659692  0.13677475  0.17975383     0.17600
C1716       C  0.13960058  0.12848804  0.21053493    -0.11500
C1717       C  0.12218102  0.11050320  0.21320882    -0.12300
C1718       C  0.11170141  0.10071804  0.18512168     0.19200
C1719       C  0.11878180  0.10894221  0.15435058    -0.14400
C1720       C  0.13618052  0.12692496  0.15167930    -0.12600
C1721       C  0.09374435  0.08224526  0.18798972     0.00200
C1722       C  0.07890154  0.06676554  0.19198774    -0.32700
C1723       C  0.16429484  0.15546785  0.17670977     0.01500
C1724       C  0.17880537  0.17106929  0.17157006    -0.34300
H1725       H  0.14753948  0.13595349  0.23239590     0.12600
H1726       H  0.11686275  0.10425501  0.23713884     0.12400
H1727       H  0.11084050  0.10149721  0.13247806     0.12300
H1728       H  0.14146895  0.13319170  0.12774368     0.11300
loop_ 
_geom_bond_atom_site_label_1 
_geom_bond_atom_site_label_2 
_geom_bond_distance 
_geom_bond_site_symmetry_2 
_ccdc_geom_bond_type 
Zr1           O2   2.441   1_455  S
Zr1           O3   2.447       .  S
Zr1           O4   2.449       .  S
Zr1           O7   2.444   1_455  S
Zr1           O9   2.383   1_545  S
Zr1          O10   2.385   1_445  S
Zr1          O11   2.411       .  S
Zr1          O12   2.403   1_455  S
O2           H58   0.991   1_655  S
O2           H66   0.990   1_655  S
O3           C23   1.284       .  A
O4           C25   1.284       .  A
O5          Zr15   2.431   1_545  S
O5           C24   1.283       .  A
O6          Zr14   2.425   1_545  S
O6           C25   1.281       .  A
O7           C24   1.285       .  A
O8          Zr16   2.405       .  S
O8           C23   1.277   1_565  A
O9          Zr14   2.398       .  S
O9          Zr16   2.383       .  S
O10         Zr15   2.394       .  S
O10         Zr16   2.381   1_655  S
O10          H45   0.965       .  S
O11         Zr14   2.401   1_545  S
O11         Zr31   2.391       .  S
O11          H48   0.964       .  S
O12         Zr15   2.389   1_545  S
O12         Zr31   2.390   1_655  S
Zr13         O38   2.447       .  S
Zr13         O32   2.441       .  S
Zr13         O40   2.443   1_455  S
Zr13         O28   2.440       .  S
Zr13         O19   2.401   1_455  S
Zr13         O20   2.404       .  S
Zr13         O21   2.380       .  S
Zr13         O22   2.381   1_455  S
Zr14         O33   2.436   1_565  S
Zr14         O26   2.437       .  S
Zr14         O27   2.429       .  S
Zr14         O20   2.396       .  S
Zr14         O21   2.388       .  S
Zr15         O17   2.434   1_565  S
Zr15         O39   2.436       .  S
Zr15         O41   2.427       .  S
Zr15         O19   2.390       .  S
Zr15         O22   2.388       .  S
Zr16         O42   2.438   1_455  S
Zr16         O43   2.436       .  S
Zr16         O18   2.437       .  S
Zr16         O19   2.389   1_455  S
Zr16         O20   2.390       .  S
O17          H54   0.990       .  S
O18          H49   0.991       .  S
O18          H63   0.989       .  S
O20          H46   0.966       .  S
O21         Zr31   2.376   1_565  S
O22         Zr31   2.373   1_665  S
O22          H47   0.967       .  S
C23        C1666   1.434       .  S
C24        C1682   1.440       .  S
C25        C1722   1.435       .  S
O26          H62   0.990       .  S
O27          C29   1.283       .  A
O28          C29   1.284       .  A
C29        C1708   1.436       .  S
O30         Zr31   2.438   1_655  S
O30          H59   0.990       .  S
Zr31         O34   2.436       .  S
Zr31         O35   2.441   1_455  S
Zr31         O36   2.418       .  S
O32          C37   1.285       .  A
O33          H50   0.990       .  S
O33          H65   0.990       .  S
O34          H51   0.990       .  S
O35          H55   0.990       .  S
O35          H64   0.990       .  S
O36          C37   1.280   1_545  A
C37        C1652   1.435       .  S
O38          H57   0.990   1_455  S
O38          H61   0.990       .  S
O39          H53   0.990       .  S
O39          H60   0.990       .  S
O40          C44   1.285       .  A
O41          C44   1.282       .  A
O42          H52   0.990       .  S
O43          H56   0.990       .  S
C44        C1696   1.439       .  S
Zr67         O68   2.442   1_455  S
Zr67         O69   2.449   1_455  S
Zr67         O70   2.452       .  S
Zr67         O73   2.443   1_455  S
Zr67         O75   2.382   1_545  S
Zr67         O76   2.387   1_445  S
Zr67         O77   2.412       .  S
Zr67         O78   2.404   1_455  S
O68         H124   0.991   1_655  S
O68         H132   0.989   1_655  S
O69          C89   1.284   1_655  A
O70          C91   1.284       .  A
O71         Zr81   2.426   1_545  S
O71          C90   1.282       .  A
O72         Zr80   2.426   1_545  S
O72          C91   1.281       .  A
O73          C90   1.285       .  A
O74         Zr82   2.406       .  S
O74          C89   1.277   1_565  A
O75         Zr80   2.395       .  S
O75         Zr82   2.384       .  S
O76         Zr81   2.396       .  S
O76         Zr82   2.380   1_655  S
O76         H111   0.965       .  S
O77         Zr80   2.400   1_545  S
O77         Zr97   2.389       .  S
O77         H114   0.964       .  S
O78         Zr81   2.391   1_545  S
O78         Zr97   2.390   1_655  S
Zr79        O104   2.447       .  S
Zr79         O98   2.438       .  S
Zr79        O106   2.436   1_455  S
Zr79         O94   2.437       .  S
Zr79         O85   2.401   1_455  S
Zr79         O86   2.404       .  S
Zr79         O87   2.379       .  S
Zr79         O88   2.382   1_455  S
Zr80         O99   2.438   1_565  S
Zr80         O92   2.434       .  S
Zr80         O93   2.421       .  S
Zr80         O86   2.395       .  S
Zr80         O87   2.389       .  S
Zr81         O83   2.435   1_565  S
Zr81        O105   2.438       .  S
Zr81        O107   2.432       .  S
Zr81         O85   2.389       .  S
Zr81         O88   2.388       .  S
Zr82        O108   2.434   1_455  S
Zr82        O109   2.434       .  S
Zr82         O84   2.438       .  S
Zr82         O85   2.392   1_455  S
Zr82         O86   2.390       .  S
O83         H120   0.990   1_545  S
O84         H115   0.991       .  S
O84         H129   0.989       .  S
O86         H112   0.966       .  S
O87         Zr97   2.371   1_565  S
O88         Zr97   2.375   1_665  S
O88         H113   0.967       .  S
C89        C1654   1.435       .  S
C90        C1596   1.438       .  S
C91        C1640   1.437       .  S
O92         H128   0.990       .  S
O93          C95   1.282       .  A
O94          C95   1.284       .  A
C95        C1626   1.431       .  S
O96         Zr97   2.438   1_655  S
O96         H125   0.990       .  S
Zr97        O100   2.437       .  S
Zr97        O101   2.440   1_455  S
Zr97        O102   2.415       .  S
O98         C103   1.284       .  A
O99         H116   0.990       .  S
O99         H131   0.990       .  S
O100        H117   0.990       .  S
O101        H121   0.990       .  S
O101        H130   0.990       .  S
O102        C103   1.279   1_545  A
C103       C1668   1.433       .  S
O104        H123   0.990   1_455  S
O104        H127   0.990       .  S
O105        H119   0.990       .  S
O105        H126   0.990       .  S
O106        C110   1.284       .  A
O107        C110   1.283       .  A
O108        H118   0.990       .  S
O109        H122   0.990   1_455  S
C110       C1610   1.437       .  S
Zr133       O134   2.443       .  S
Zr133       O135   2.444       .  S
Zr133       O136   2.453       .  S
Zr133       O139   2.445       .  S
Zr133       O141   2.384       .  S
Zr133       O142   2.389       .  S
Zr133       O143   2.411       .  S
Zr133       O144   2.403       .  S
O134        H190   0.991       .  S
O134        H198   0.989       .  S
O135        C155   1.283   1_554  A
O136        C157   1.285       .  A
O137       Zr147   2.426       .  S
O137        C156   1.282       .  A
O138       Zr146   2.421       .  S
O138        C157   1.280       .  A
O139        C156   1.285       .  A
O140       Zr148   2.407       .  S
O140        C155   1.277   1_554  A
O141       Zr146   2.398       .  S
O141       Zr148   2.383       .  S
O142       Zr147   2.396       .  S
O142       Zr148   2.380       .  S
O142        H177   0.965       .  S
O143       Zr146   2.402       .  S
O143       Zr163   2.390       .  S
O143        H180   0.964       .  S
O144       Zr147   2.392       .  S
O144       Zr163   2.390       .  S
Zr145       O170   2.447       .  S
Zr145       O164   2.437       .  S
Zr145       O172   2.438       .  S
Zr145       O160   2.440       .  S
Zr145       O151   2.401       .  S
Zr145       O152   2.402       .  S
Zr145       O153   2.382       .  S
Zr145       O154   2.384       .  S
Zr146       O165   2.436       .  S
Zr146       O158   2.436       .  S
Zr146       O159   2.427       .  S
Zr146       O152   2.394       .  S
Zr146       O153   2.388       .  S
Zr147       O149   2.435       .  S
Zr147       O171   2.438       .  S
Zr147       O173   2.431       .  S
Zr147       O151   2.390       .  S
Zr147       O154   2.386       .  S
Zr148       O174   2.435       .  S
Zr148       O175   2.436       .  S
Zr148       O150   2.437       .  S
Zr148       O151   2.393       .  S
Zr148       O152   2.389       .  S
O149        H186   0.990       .  S
O150        H181   0.991       .  S
O150        H195   0.989       .  S
O152        H178   0.966       .  S
O153       Zr163   2.376       .  S
O154       Zr163   2.376       .  S
O154        H179   0.967       .  S
C155       C1526   1.433       .  S
C156       C1568   1.438       .  S
C157       C1584   1.436       .  S
O158        H194   0.990       .  S
O159        C161   1.283       .  A
O160        C161   1.285       .  A
C161       C1724   1.435       .  S
O162       Zr163   2.440       .  S
O162        H191   0.990       .  S
Zr163       O166   2.438       .  S
Zr163       O167   2.440       .  S
Zr163       O168   2.414       .  S
O164        C169   1.284       .  A
O165        H182   0.990       .  S
O165        H197   0.990       .  S
O166        H183   0.990       .  S
O167        H187   0.990       .  S
O167        H196   0.990       .  S
O168        C169   1.279       .  A
C169       C1542   1.431       .  S
O170        H189   0.990       .  S
O170        H193   0.991       .  S
O171        H185   0.990       .  S
O171        H192   0.990       .  S
O172        C176   1.284       .  A
O173        C176   1.283       .  A
O174        H184   0.990       .  S
O175        H188   0.990       .  S
C176       C1554   1.438       .  S
Zr199       O200   2.443       .  S
Zr199       O201   2.440       .  S
Zr199       O202   2.454       .  S
Zr199       O205   2.441       .  S
Zr199       O207   2.383       .  S
Zr199       O208   2.391       .  S
Zr199       O209   2.408       .  S
Zr199       O210   2.400       .  S
O200        H256   0.991       .  S
O200        H264   0.990       .  S
O201        C221   1.283       .  A
O202        C223   1.285       .  A
O203       Zr213   2.425       .  S
O203        C222   1.282       .  A
O204       Zr212   2.426       .  S
O204        C223   1.281       .  A
O205        C222   1.284       .  A
O206       Zr214   2.405       .  S
O206        C221   1.277       .  A
O207       Zr212   2.397       .  S
O207       Zr214   2.385       .  S
O208       Zr213   2.390       .  S
O208       Zr214   2.380       .  S
O208        H243   0.967       .  S
O209       Zr212   2.401       .  S
O209       Zr229   2.390       .  S
O209        H246   0.964       .  S
O210       Zr213   2.390       .  S
O210       Zr229   2.389       .  S
Zr211       O236   2.450       .  S
Zr211       O230   2.437       .  S
Zr211       O238   2.441       .  S
Zr211       O226   2.445       .  S
Zr211       O217   2.402       .  S
Zr211       O218   2.400       .  S
Zr211       O219   2.381       .  S
Zr211       O220   2.386       .  S
Zr212       O231   2.437       .  S
Zr212       O224   2.436       .  S
Zr212       O225   2.428       .  S
Zr212       O218   2.394       .  S
Zr212       O219   2.390       .  S
Zr213       O215   2.434       .  S
Zr213       O237   2.436       .  S
Zr213       O239   2.426       .  S
Zr213       O217   2.389       .  S
Zr213       O220   2.389       .  S
Zr214       O240   2.436       .  S
Zr214       O241   2.436       .  S
Zr214       O216   2.434       .  S
Zr214       O217   2.387       .  S
Zr214       O218   2.389       .  S
O215        H252   0.990       .  S
O216        H247   0.991       .  S
O216        H261   0.989       .  S
O218        H244   0.966       .  S
O219       Zr229   2.374       .  S
O220       Zr229   2.375       .  S
O220        H245   0.967       .  S
C221       C1540   1.430       .  S
C222       C1498   1.437       .  S
C223       C1514   1.439       .  S
O224        H260   0.990       .  S
O225        C227   1.283       .  A
O226        C227   1.285       .  A
C227       C1638   1.438       .  S
O228       Zr229   2.439       .  S
O228        H257   0.991       .  S
Zr229       O232   2.437       .  S
Zr229       O233   2.438       .  S
Zr229       O234   2.415       .  S
O230        C235   1.284       .  A
O231        H248   0.990       .  S
O231        H263   0.990       .  S
O232        H249   0.990       .  S
O233        H253   0.990       .  S
O233        H262   0.990       .  S
O234        C235   1.279       .  A
C235       C1528   1.432       .  S
O236        H255   0.990       .  S
O236        H259   0.990       .  S
O237        H251   0.990       .  S
O237        H258   0.990       .  S
O238        C242   1.285       .  A
O239        C242   1.282       .  A
O240        H250   0.990       .  S
O241        H254   0.990       .  S
C242       C1484   1.435       .  S
Zr265       O266   2.442       .  S
Zr265       O267   2.447       .  S
Zr265       O268   2.449       .  S
Zr265       O271   2.444       .  S
Zr265       O273   2.381       .  S
Zr265       O274   2.387       .  S
Zr265       O275   2.412       .  S
Zr265       O276   2.402       .  S
O266        H322   0.991       .  S
O266        H330   0.989       .  S
O267        C287   1.284       .  A
O268        C289   1.284       .  A
O269       Zr279   2.424       .  S
O269        C288   1.282       .  A
O270       Zr278   2.423       .  S
O270        C289   1.281       .  A
O271        C288   1.285       .  A
O272       Zr280   2.406       .  S
O272        C287   1.277       .  A
O273       Zr278   2.397       .  S
O273       Zr280   2.379       .  S
O274       Zr279   2.395       .  S
O274       Zr280   2.381       .  S
O274        H309   0.967       .  S
O275       Zr278   2.401       .  S
O275       Zr295   2.392       .  S
O275        H312   0.965       .  S
O276       Zr279   2.388       .  S
O276       Zr295   2.389       .  S
Zr277       O302   2.450       .  S
Zr277       O296   2.441       .  S
Zr277       O304   2.443       .  S
Zr277       O292   2.445       .  S
Zr277       O283   2.403       .  S
Zr277       O284   2.405       .  S
Zr277       O285   2.383       .  S
Zr277       O286   2.383       .  S
Zr278       O297   2.436       .  S
Zr278       O290   2.435       .  S
Zr278       O291   2.429       .  S
Zr278       O284   2.396       .  S
Zr278       O285   2.388       .  S
Zr279       O281   2.435       .  S
Zr279       O303   2.434       .  S
Zr279       O305   2.425       .  S
Zr279       O283   2.391       .  S
Zr279       O286   2.385       .  S
Zr280       O306   2.435       .  S
Zr280       O307   2.436       .  S
Zr280       O282   2.438       .  S
Zr280       O283   2.393       .  S
Zr280       O284   2.388       .  S
O281        H318   0.990       .  S
O282        H313   0.991       .  S
O282        H327   0.989       .  S
O284        H310   0.966       .  S
O285       Zr295   2.375       .  S
O286       Zr295   2.376       .  S
O286        H311   0.967       .  S
C287       C1430   1.433       .  S
C288       C1444   1.438       .  S
C289       C1710   1.436       .  S
O290        H326   0.990       .  S
O291        C293   1.283       .  A
O292        C293   1.286       .  A
C293       C1470   1.437       .  S
O294       Zr295   2.439       .  S
O294        H323   0.990       .  S
Zr295       O298   2.437       .  S
Zr295       O299   2.440       .  S
Zr295       O300   2.413       .  S
O296        C301   1.285       .  A
O297        H314   0.990       .  S
O297        H329   0.990       .  S
O298        H315   0.990       .  S
O299        H319   0.990       .  S
O299        H328   0.990       .  S
O300        C301   1.279       .  A
C301       C1414   1.432       .  S
O302        H321   0.990       .  S
O302        H325   0.990       .  S
O303        H317   0.990       .  S
O303        H324   0.990       .  S
O304        C308   1.285       .  A
O305        C308   1.282       .  A
O306        H316   0.990       .  S
O307        H320   0.990       .  S
C308       C1456   1.436       .  S
Zr331       O332   2.442       .  S
Zr331       O333   2.446       .  S
Zr331       O334   2.445       .  S
Zr331       O337   2.439       .  S
Zr331       O339   2.381       .  S
Zr331       O340   2.386       .  S
Zr331       O341   2.411       .  S
Zr331       O342   2.402       .  S
O332        H388   0.991       .  S
O332        H396   0.990       .  S
O333        C353   1.284       .  A
O334        C355   1.283       .  A
O335       Zr345   2.425       .  S
O335        C354   1.282       .  A
O336       Zr344   2.418       .  S
O336        C355   1.280       .  A
O337        C354   1.284       .  A
O338       Zr346   2.408       .  S
O338        C353   1.277       .  A
O339       Zr344   2.397       .  S
O339       Zr346   2.381       .  S
O340       Zr345   2.396       .  S
O340       Zr346   2.378       .  S
O340        H375   0.965       .  S
O341       Zr344   2.398       .  S
O341       Zr361   2.395       .  S
O341        H378   0.965       .  S
O342       Zr345   2.390       .  S
O342       Zr361   2.390       .  S
Zr343       O368   2.450       .  S
Zr343       O362   2.435       .  S
Zr343       O370   2.437       .  S
Zr343       O358   2.440       .  S
Zr343       O349   2.402       .  S
Zr343       O350   2.402       .  S
Zr343       O351   2.383       .  S
Zr343       O352   2.384       .  S
Zr344       O363   2.435       .  S
Zr344       O356   2.435       .  S
Zr344       O357   2.422       .  S
Zr344       O350   2.394       .  S
Zr344       O351   2.387       .  S
Zr345       O347   2.435       .  S
Zr345       O369   2.438       .  S
Zr345       O371   2.430       .  S
Zr345       O349   2.391       .  S
Zr345       O352   2.388       .  S
Zr346       O372   2.435       .  S
Zr346       O373   2.434       .  S
Zr346       O348   2.435       .  S
Zr346       O349   2.392       .  S
Zr346       O350   2.388       .  S
O347        H384   0.990       .  S
O348        H379   0.991       .  S
O348        H393   0.989       .  S
O350        H376   0.966       .  S
O351       Zr361   2.377       .  S
O352       Zr361   2.376       .  S
O352        H377   0.967       .  S
C353       C1416   1.434       .  S
C354       C1372   1.436       .  S
C355       C1624   1.432       .  S
O356        H392   0.990       .  S
O357        C359   1.281       .  A
O358        C359   1.284       .  A
C359       C1402   1.433       .  S
O360       Zr361   2.439       .  S
O360        H389   0.990       .  S
Zr361       O364   2.438       .  S
Zr361       O365   2.439       .  S
Zr361       O366   2.420       .  S
O362        C367   1.283       .  A
O363        H380   0.990       .  S
O363        H395   0.990       .  S
O364        H381   0.990       .  S
O365        H385   0.990       .  S
O365        H394   0.990       .  S
O366        C367   1.280       .  A
C367       C1428   1.432   1_556  S
O368        H387   0.990       .  S
O368        H391   0.990       .  S
O369        H383   0.990       .  S
O369        H390   0.990       .  S
O370        C374   1.283       .  A
O371        C374   1.283       .  A
O372        H382   0.990       .  S
O373        H386   0.990       .  S
C374       C1388   1.437       .  S
Zr397       O398   2.443       .  S
Zr397       O399   2.439       .  S
Zr397       O400   2.444       .  S
Zr397       O403   2.442       .  S
Zr397       O405   2.384   1_565  S
Zr397       O406   2.388   1_565  S
Zr397       O407   2.410   1_556  S
Zr397       O408   2.398   1_556  S
O398        H454   0.991       .  S
O398        H462   0.990       .  S
O399        C419   1.282       .  A
O400        C421   1.283       .  A
O401       Zr411   2.432   1_565  S
O401        C420   1.283       .  A
O402       Zr410   2.421   1_565  S
O402        C421   1.281       .  A
O403        C420   1.285       .  A
O404       Zr412   2.409       .  S
O404        C419   1.277   1_545  A
O405       Zr410   2.398       .  S
O405       Zr412   2.382       .  S
O406       Zr411   2.392       .  S
O406       Zr412   2.380       .  S
O406        H441   0.965       .  S
O407       Zr410   2.401   1_564  S
O407       Zr427   2.392       .  S
O407        H444   0.965       .  S
O408       Zr411   2.389   1_564  S
O408       Zr427   2.387       .  S
Zr409       O434   2.449       .  S
Zr409       O428   2.441       .  S
Zr409       O436   2.442       .  S
Zr409       O424   2.446       .  S
Zr409       O415   2.404   1_554  S
Zr409       O416   2.402   1_554  S
Zr409       O417   2.381       .  S
Zr409       O418   2.385       .  S
Zr410       O429   2.435   1_546  S
Zr410       O422   2.434       .  S
Zr410       O423   2.429   1_556  S
Zr410       O416   2.393       .  S
Zr410       O417   2.387   1_556  S
Zr411       O413   2.433   1_546  S
Zr411       O435   2.438       .  S
Zr411       O437   2.430   1_556  S
Zr411       O415   2.390       .  S
Zr411       O418   2.390   1_556  S
Zr412       O438   2.437       .  S
Zr412       O439   2.436       .  S
Zr412       O414   2.436       .  S
Zr412       O415   2.391       .  S
Zr412       O416   2.390       .  S
O413        H450   0.990   1_565  S
O414        H445   0.991       .  S
O414        H459   0.989       .  S
O416        H442   0.966       .  S
O417       Zr427   2.378   1_545  S
O418       Zr427   2.376   1_545  S
O418        H443   0.967       .  S
C419       C1316   1.431       .  S
C420       C1344   1.440       .  S
C421       C1400   1.433       .  S
O422        H458   0.990       .  S
O423        C425   1.283       .  A
O424        C425   1.285       .  A
C425       C1582   1.439       .  S
O426       Zr427   2.440       .  S
O426        H455   0.990       .  S
Zr427       O430   2.437       .  S
Zr427       O431   2.439       .  S
Zr427       O432   2.417       .  S
O428        C433   1.285       .  A
O429        H446   0.990       .  S
O429        H461   0.990       .  S
O430        H447   0.990       .  S
O431        H451   0.990       .  S
O431        H460   0.990       .  S
O432        C433   1.280   1_565  A
C433       C1330   1.434       .  S
O434        H453   0.990       .  S
O434        H457   0.990       .  S
O435        H449   0.990       .  S
O435        H456   0.990       .  S
O436        C440   1.285       .  A
O437        C440   1.283       .  A
O438        H448   0.990       .  S
O439        H452   0.990       .  S
C440       C1360   1.439       .  S
Zr463       O464   2.442       .  S
Zr463       O465   2.441       .  S
Zr463       O466   2.450       .  S
Zr463       O469   2.445       .  S
Zr463       O471   2.384   1_565  S
Zr463       O472   2.386   1_565  S
Zr463       O473   2.409       .  S
Zr463       O474   2.403       .  S
O464        H520   0.991       .  S
O464        H528   0.990       .  S
O465        C485   1.283       .  A
O466        C487   1.284       .  A
O467       Zr477   2.435   1_565  S
O467        C486   1.284       .  A
O468       Zr476   2.423   1_565  S
O468        C487   1.281       .  A
O469        C486   1.285       .  A
O470       Zr478   2.405       .  S
O470        C485   1.277   1_545  A
O471       Zr476   2.397       .  S
O471       Zr478   2.382       .  S
O472       Zr477   2.396       .  S
O472       Zr478   2.379       .  S
O472        H507   0.965       .  S
O473       Zr476   2.399   1_565  S
O473       Zr493   2.387       .  S
O473        H510   0.964       .  S
O474       Zr477   2.391   1_565  S
O474       Zr493   2.390       .  S
Zr475       O500   2.450       .  S
Zr475       O494   2.432       .  S
Zr475       O502   2.443       .  S
Zr475       O490   2.448       .  S
Zr475       O481   2.400       .  S
Zr475       O482   2.403       .  S
Zr475       O483   2.381       .  S
Zr475       O484   2.388       .  S
Zr476       O495   2.436   1_545  S
Zr476       O488   2.436       .  S
Zr476       O489   2.425       .  S
Zr476       O482   2.397       .  S
Zr476       O483   2.386       .  S
Zr477       O479   2.435   1_545  S
Zr477       O501   2.437       .  S
Zr477       O503   2.433       .  S
Zr477       O481   2.392       .  S
Zr477       O484   2.390       .  S
Zr478       O504   2.435       .  S
Zr478       O505   2.436       .  S
Zr478       O480   2.437       .  S
Zr478       O481   2.389       .  S
Zr478       O482   2.389       .  S
O479        H516   0.990       .  S
O480        H511   0.991       .  S
O480        H525   0.989       .  S
O482        H508   0.966       .  S
O483       Zr493   2.376   1_545  S
O484       Zr493   2.378   1_545  S
O484        H509   0.967       .  S
C485       C1332   1.432       .  S
C486       C1288   1.443       .  S
C487       C1472   1.436       .  S
O488        H524   0.990       .  S
O489        C491   1.282       .  A
O490        C491   1.285       .  A
C491       C1512   1.437       .  S
O492       Zr493   2.440       .  S
O492        H521   0.990       .  S
Zr493       O496   2.436       .  S
Zr493       O497   2.439       .  S
Zr493       O498   2.412       .  S
O494        C499   1.283       .  A
O495        H512   0.990       .  S
O495        H527   0.990       .  S
O496        H513   0.990       .  S
O497        H517   0.990       .  S
O497        H526   0.990       .  S
O498        C499   1.279   1_565  A
C499       C1318   1.429       .  S
O500        H519   0.990       .  S
O500        H523   0.990       .  S
O501        H515   0.990       .  S
O501        H522   0.990       .  S
O502        C506   1.285       .  A
O503        C506   1.284       .  A
O504        H514   0.990       .  S
O505        H518   0.990       .  S
C506       C1302   1.441       .  S
Zr529       O530   2.443       .  S
Zr529       O531   2.446       .  S
Zr529       O532   2.451       .  S
Zr529       O535   2.448       .  S
Zr529       O537   2.383       .  S
Zr529       O538   2.387       .  S
Zr529       O539   2.410       .  S
Zr529       O540   2.402       .  S
O530        H586   0.991       .  S
O530        H594   0.990       .  S
O531        C551   1.284       .  A
O532        C553   1.284       .  A
O533       Zr543   2.431       .  S
O533        C552   1.283       .  A
O534       Zr542   2.420       .  S
O534        C553   1.280       .  A
O535        C552   1.286       .  A
O536       Zr544   2.405       .  S
O536        C551   1.276       .  A
O537       Zr542   2.397       .  S
O537       Zr544   2.380       .  S
O538       Zr543   2.396       .  S
O538       Zr544   2.379       .  S
O538        H573   0.965       .  S
O539       Zr542   2.401       .  S
O539       Zr559   2.392       .  S
O539        H576   0.965       .  S
O540       Zr543   2.392       .  S
O540       Zr559   2.389       .  S
Zr541       O566   2.450       .  S
Zr541       O560   2.443       .  S
Zr541       O568   2.440       .  S
Zr541       O556   2.445       .  S
Zr541       O547   2.402       .  S
Zr541       O548   2.404       .  S
Zr541       O549   2.381       .  S
Zr541       O550   2.385       .  S
Zr542       O561   2.436       .  S
Zr542       O554   2.433       .  S
Zr542       O555   2.426       .  S
Zr542       O548   2.394       .  S
Zr542       O549   2.387       .  S
Zr543       O545   2.434       .  S
Zr543       O567   2.437       .  S
Zr543       O569   2.436       .  S
Zr543       O547   2.388       .  S
Zr543       O550   2.389       .  S
Zr544       O570   2.436       .  S
Zr544       O571   2.435       .  S
Zr544       O546   2.438       .  S
Zr544       O547   2.390       .  S
Zr544       O548   2.388       .  S
O545        H582   0.990       .  S
O546        H577   0.990       .  S
O546        H591   0.991       .  S
O548        H574   0.966       .  S
O549       Zr559   2.376       .  S
O550       Zr559   2.379       .  S
O550        H575   0.967       .  S
C551       C1234   1.432       .  S
C552       C1290   1.442       .  S
C553       C1274   1.436       .  S
O554        H590   0.990       .  S
O555        C557   1.282       .  A
O556        C557   1.285       .  A
C557       C1262   1.437       .  S
O558       Zr559   2.439       .  S
O558        H587   0.990       .  S
Zr559       O562   2.438       .  S
Zr559       O563   2.439       .  S
Zr559       O564   2.415       .  S
O560        C565   1.285       .  A
O561        H578   0.990       .  S
O561        H593   0.990       .  S
O562        H579   0.990       .  S
O563        H583   0.990       .  S
O563        H592   0.990       .  S
O564        C565   1.280       .  A
C565       C1246   1.434       .  S
O566        H585   0.990       .  S
O566        H589   0.990       .  S
O567        H581   0.990       .  S
O567        H588   0.990       .  S
O568        C572   1.284       .  A
O569        C572   1.284       .  A
O570        H580   0.990       .  S
O571        H584   0.990       .  S
C572       C1694   1.442       .  S
Zr595       O596   2.440       .  S
Zr595       O597   2.438       .  S
Zr595       O598   2.441       .  S
Zr595       O601   2.434       .  S
Zr595       O603   2.382       .  S
Zr595       O604   2.384       .  S
Zr595       O605   2.406       .  S
Zr595       O606   2.400       .  S
O596        H652   0.991       .  S
O596        H660   0.990       .  S
O597        C617   1.283       .  A
O598        C619   1.283       .  A
O599       Zr609   2.429       .  S
O599        C618   1.282       .  A
O600       Zr608   2.432       .  S
O600        C619   1.283       .  A
O601        C618   1.283       .  A
O602       Zr610   2.413       .  S
O602        C617   1.278       .  A
O603       Zr608   2.393       .  S
O603       Zr610   2.378       .  S
O604       Zr609   2.391       .  S
O604       Zr610   2.377       .  S
O604        H639   0.964       .  S
O605       Zr608   2.399       .  S
O605       Zr625   2.392       .  S
O605        H642   0.965       .  S
O606       Zr609   2.388       .  S
O606       Zr625   2.391       .  S
Zr607       O632   2.448       .  S
Zr607       O626   2.442       .  S
Zr607       O634   2.445       .  S
Zr607       O622   2.448       .  S
Zr607       O613   2.403       .  S
Zr607       O614   2.406       .  S
Zr607       O615   2.382       .  S
Zr607       O616   2.385       .  S
Zr608       O627   2.436       .  S
Zr608       O620   2.436       .  S
Zr608       O621   2.428       .  S
Zr608       O614   2.397       .  S
Zr608       O615   2.390       .  S
Zr609       O611   2.434       .  S
Zr609       O633   2.439       .  S
Zr609       O635   2.426       .  S
Zr609       O613   2.392       .  S
Zr609       O616   2.390       .  S
Zr610       O636   2.436       .  S
Zr610       O637   2.436       .  S
Zr610       O612   2.436       .  S
Zr610       O613   2.392       .  S
Zr610       O614   2.391       .  S
O611        H648   0.990       .  S
O612        H643   0.991       .  S
O612        H657   0.989       .  S
O614        H640   0.966       .  S
O615       Zr625   2.375       .  S
O616       Zr625   2.377       .  S
O616        H641   0.967       .  S
C617       C1232   1.432       .  S
C618       C1612   1.436       .  S
C619       C1204   1.437       .  S
O620        H656   0.990       .  S
O621        C623   1.283       .  A
O622        C623   1.286       .  A
C623       C1218   1.439       .  S
O624       Zr625   2.440       .  S
O624        H653   0.990       .  S
Zr625       O628   2.436       .  S
Zr625       O629   2.441       .  S
Zr625       O630   2.418       .  S
O626        C631   1.285   1_556  A
O627        H644   0.990       .  S
O627        H659   0.990       .  S
O628        H645   0.990       .  S
O629        H649   0.990       .  S
O629        H658   0.990       .  S
O630        C631   1.280   1_556  A
C631       C1248   1.436       .  S
O632        H651   0.990       .  S
O632        H655   0.990       .  S
O633        H647   0.990       .  S
O633        H654   0.990       .  S
O634        C638   1.286       .  A
O635        C638   1.282       .  A
O636        H646   0.990       .  S
O637        H650   0.990       .  S
C638       C1346   1.439       .  S
Zr661       O662   2.442       .  S
Zr661       O663   2.450       .  S
Zr661       O664   2.451       .  S
Zr661       O667   2.439       .  S
Zr661       O669   2.381       .  S
Zr661       O670   2.385       .  S
Zr661       O671   2.413       .  S
Zr661       O672   2.404       .  S
O662        H718   0.991       .  S
O662        H726   0.989       .  S
O663        C683   1.285       .  A
O664        C685   1.284       .  A
O665       Zr675   2.431       .  S
O665        C684   1.283       .  A
O666       Zr674   2.427       .  S
O666        C685   1.282       .  A
O667        C684   1.284       .  A
O668       Zr676   2.405       .  S
O668        C683   1.276       .  A
O669       Zr674   2.399       .  S
O669       Zr676   2.383       .  S
O670       Zr675   2.395       .  S
O670       Zr676   2.381       .  S
O670        H705   0.965       .  S
O671       Zr674   2.402       .  S
O671       Zr691   2.392       .  S
O671        H708   0.964       .  S
O672       Zr675   2.391       .  S
O672       Zr691   2.392       .  S
Zr673       O698   2.447       .  S
Zr673       O692   2.438       .  S
Zr673       O700   2.438       .  S
Zr673       O688   2.445       .  S
Zr673       O679   2.400       .  S
Zr673       O680   2.401       .  S
Zr673       O681   2.381       .  S
Zr673       O682   2.385       .  S
Zr674       O693   2.437       .  S
Zr674       O686   2.434       .  S
Zr674       O687   2.433       .  S
Zr674       O680   2.395       .  S
Zr674       O681   2.387       .  S
Zr675       O677   2.435       .  S
Zr675       O699   2.438       .  S
Zr675       O701   2.428       .  S
Zr675       O679   2.390       .  S
Zr675       O682   2.389       .  S
Zr676       O702   2.437       .  S
Zr676       O703   2.435       .  S
Zr676       O678   2.436       .  S
Zr676       O679   2.388       .  S
Zr676       O680   2.387       .  S
O677        H714   0.990       .  S
O678        H709   0.991       .  S
O678        H723   0.989       .  S
O680        H706   0.966       .  S
O681       Zr691   2.375       .  S
O682       Zr691   2.374       .  S
O682        H707   0.966       .  S
C683       C1150   1.436   1_554  S
C684       C1358   1.439       .  S
C685       C1192   1.438       .  S
O686        H722   0.990       .  S
O687        C689   1.284       .  A
O688        C689   1.286       .  A
C689       C1178   1.439       .  S
O690       Zr691   2.439       .  S
O690        H719   0.990       .  S
Zr691       O694   2.437       .  S
Zr691       O695   2.441       .  S
Zr691       O696   2.418       .  S
O692        C697   1.284       .  A
O693        H710   0.990       .  S
O693        H725   0.990       .  S
O694        H711   0.990       .  S
O695        H715   0.990       .  S
O695        H724   0.990       .  S
O696        C697   1.280       .  A
C697       C1162   1.434       .  S
O698        H717   0.990       .  S
O698        H721   0.990       .  S
O699        H713   0.990       .  S
O699        H720   0.990       .  S
O700        C704   1.284       .  A
O701        C704   1.283       .  A
O702        H712   0.990       .  S
O703        H716   0.990       .  S
C704       C1680   1.436       .  S
Zr727       O728   2.442       .  S
Zr727       O729   2.451       .  S
Zr727       O730   2.450       .  S
Zr727       O733   2.437       .  S
Zr727       O735   2.381       .  S
Zr727       O736   2.387       .  S
Zr727       O737   2.409       .  S
Zr727       O738   2.405       .  S
O728        H784   0.991       .  S
O728        H792   0.990       .  S
O729        C749   1.285       .  A
O730        C751   1.285       .  A
O731       Zr741   2.428       .  S
O731        C750   1.283       .  A
O732       Zr740   2.427       .  S
O732        C751   1.282       .  A
O733        C750   1.284       .  A
O734       Zr742   2.407       .  S
O734        C749   1.277       .  A
O735       Zr740   2.397       .  S
O735       Zr742   2.382       .  S
O736       Zr741   2.395       .  S
O736       Zr742   2.378       .  S
O736        H771   0.965       .  S
O737       Zr740   2.398       .  S
O737       Zr757   2.390       .  S
O737        H774   0.964       .  S
O738       Zr741   2.389       .  S
O738       Zr757   2.391       .  S
Zr739       O764   2.449       .  S
Zr739       O758   2.443       .  S
Zr739       O766   2.446       .  S
Zr739       O754   2.451       .  S
Zr739       O745   2.403       .  S
Zr739       O746   2.404       .  S
Zr739       O747   2.382       .  S
Zr739       O748   2.388       .  S
Zr740       O759   2.436       .  S
Zr740       O752   2.434       .  S
Zr740       O753   2.428       .  S
Zr740       O746   2.395       .  S
Zr740       O747   2.388       .  S
Zr741       O743   2.435       .  S
Zr741       O765   2.439       .  S
Zr741       O767   2.430       .  S
Zr741       O745   2.389       .  S
Zr741       O748   2.390       .  S
Zr742       O768   2.437       .  S
Zr742       O769   2.435       .  S
Zr742       O744   2.437       .  S
Zr742       O745   2.391       .  S
Zr742       O746   2.388       .  S
O743        H780   0.990       .  S
O744        H775   0.991       .  S
O744        H789   0.990       .  S
O746        H772   0.966       .  S
O747       Zr757   2.377       .  S
O748       Zr757   2.379       .  S
O748        H773   0.967       .  S
C749       C1164   1.436       .  S
C750       C1304   1.437       .  S
C751       C1134   1.438       .  S
O752        H788   0.990       .  S
O753        C755   1.283       .  A
O754        C755   1.287       .  A
C755       C1120   1.440       .  S
O756       Zr757   2.441       .  S
O756        H785   0.990       .  S
Zr757       O760   2.438       .  S
Zr757       O761   2.440       .  S
Zr757       O762   2.418       .  S
O758        C763   1.285       .  A
O759        H776   0.990       .  S
O759        H791   0.990       .  S
O760        H777   0.990       .  S
O761        H781   0.990       .  S
O761        H790   0.990       .  S
O762        C763   1.280       .  A
C763       C1148   1.436       .  S
O764        H783   0.990       .  S
O764        H787   0.990       .  S
O765        H779   0.990       .  S
O765        H786   0.990       .  S
O766        C770   1.286       .  A
O767        C770   1.283       .  A
O768        H778   0.990       .  S
O769        H782   0.990       .  S
C770       C1598   1.440       .  S
Zr793       O794   2.442       .  S
Zr793       O795   2.449       .  S
Zr793       O796   2.450       .  S
Zr793       O799   2.441       .  S
Zr793       O801   2.382       .  S
Zr793       O802   2.386       .  S
Zr793       O803   2.409       .  S
Zr793       O804   2.405       .  S
O794        H850   0.991       .  S
O794        H858   0.990       .  S
O795        C815   1.285       .  A
O796        C817   1.285       .  A
O797       Zr807   2.425       .  S
O797        C816   1.282       .  A
O798       Zr806   2.423       .  S
O798        C817   1.281       .  A
O799        C816   1.285       .  A
O800       Zr808   2.411       .  S
O800        C815   1.278       .  A
O801       Zr806   2.397       .  S
O801       Zr808   2.381       .  S
O802       Zr807   2.394       .  S
O802       Zr808   2.376       .  S
O802        H837   0.965       .  S
O803       Zr806   2.401       .  S
O803       Zr823   2.393   1_554  S
O803        H840   0.965       .  S
O804       Zr807   2.391       .  S
O804       Zr823   2.391   1_554  S
Zr805       O830   2.450       .  S
Zr805       O824   2.448       .  S
Zr805       O832   2.435       .  S
Zr805       O820   2.444       .  S
Zr805       O811   2.405   1_556  S
Zr805       O812   2.405   1_556  S
Zr805       O813   2.381       .  S
Zr805       O814   2.386       .  S
Zr806       O825   2.437   1_554  S
Zr806       O818   2.435       .  S
Zr806       O819   2.427   1_554  S
Zr806       O812   2.393       .  S
Zr806       O813   2.390   1_554  S
Zr807       O809   2.436   1_554  S
Zr807       O831   2.437       .  S
Zr807       O833   2.432   1_554  S
Zr807       O811   2.389       .  S
Zr807       O814   2.388   1_554  S
Zr808       O834   2.436       .  S
Zr808       O835   2.435       .  S
Zr808       O810   2.437       .  S
Zr808       O811   2.391       .  S
Zr808       O812   2.392       .  S
O809        H846   0.990       .  S
O810        H841   0.991       .  S
O810        H855   0.989       .  S
O812        H838   0.966       .  S
O813       Zr823   2.376       .  S
O814       Zr823   2.376       .  S
O814        H839   0.967       .  S
C815       C1106   1.437       .  S
C816       C1570   1.437       .  S
C817       C1190   1.437       .  S
O818        H854   0.990       .  S
O819        C821   1.282       .  A
O820        C821   1.285       .  A
C821       C1220   1.438       .  S
O822       Zr823   2.438       .  S
O822        H851   0.991       .  S
Zr823       O826   2.437       .  S
Zr823       O827   2.440       .  S
Zr823       O828   2.415       .  S
O824        C829   1.286       .  A
O825        H842   0.990       .  S
O825        H857   0.990       .  S
O826        H843   0.990       .  S
O827        H847   0.990       .  S
O827        H856   0.990       .  S
O828        C829   1.279       .  A
C829       C1092   1.437       .  S
O830        H849   0.990       .  S
O830        H853   0.990       .  S
O831        H845   0.990       .  S
O831        H852   0.990       .  S
O832        C836   1.284       .  A
O833        C836   1.283       .  A
O834        H844   0.990       .  S
O835        H848   0.990       .  S
C836       C1386   1.436       .  S
Zr859       O860   2.443       .  S
Zr859       O861   2.455       .  S
Zr859       O862   2.447       .  S
Zr859       O865   2.444       .  S
Zr859       O867   2.382       .  S
Zr859       O868   2.384       .  S
Zr859       O869   2.413       .  S
Zr859       O870   2.405       .  S
O860        H916   0.991       .  S
O860        H924   0.989       .  S
O861        C881   1.286       .  A
O862        C883   1.284       .  A
O863       Zr873   2.425       .  S
O863        C882   1.282       .  A
O864       Zr872   2.422       .  S
O864        C883   1.280       .  A
O865        C882   1.285       .  A
O866       Zr874   2.405       .  S
O866        C881   1.277       .  A
O867       Zr872   2.396       .  S
O867       Zr874   2.380       .  S
O868       Zr873   2.397       .  S
O868       Zr874   2.380       .  S
O868        H903   0.965       .  S
O869       Zr872   2.403       .  S
O869       Zr889   2.394       .  S
O869        H906   0.965       .  S
O870       Zr873   2.390       .  S
O870       Zr889   2.394       .  S
Zr871       O896   2.448       .  S
Zr871       O890   2.439       .  S
Zr871       O898   2.439       .  S
Zr871       O886   2.447       .  S
Zr871       O877   2.400       .  S
Zr871       O878   2.404       .  S
Zr871       O879   2.381       .  S
Zr871       O880   2.385       .  S
Zr872       O891   2.436       .  S
Zr872       O884   2.436       .  S
Zr872       O885   2.430       .  S
Zr872       O878   2.395       .  S
Zr872       O879   2.391       .  S
Zr873       O875   2.436       .  S
Zr873       O897   2.438       .  S
Zr873       O899   2.426       .  S
Zr873       O877   2.389       .  S
Zr873       O880   2.389       .  S
Zr874       O900   2.433       .  S
Zr874       O901   2.434       .  S
Zr874       O876   2.437       .  S
Zr874       O877   2.386       .  S
Zr874       O878   2.387       .  S
O875        H912   0.990       .  S
O876        H907   0.991       .  S
O876        H921   0.989       .  S
O878        H904   0.966       .  S
O879       Zr889   2.377       .  S
O880       Zr889   2.374       .  S
O880        H905   0.966       .  S
C881       C1094   1.438       .  S
C882       C1500   1.438       .  S
C883       C1136   1.435       .  S
O884        H920   0.990       .  S
O885        C887   1.283       .  A
O886        C887   1.286       .  A
C887       C1276   1.438       .  S
O888       Zr889   2.439       .  S
O888        H917   0.990       .  S
Zr889       O892   2.436       .  S
Zr889       O893   2.440       .  S
Zr889       O894   2.419       .  S
O890        C895   1.284       .  A
O891        H908   0.990       .  S
O891        H923   0.990       .  S
O892        H909   0.990       .  S
O893        H913   0.990       .  S
O893        H922   0.990       .  S
O894        C895   1.280       .  A
C895       C1108   1.434       .  S
O896        H915   0.990       .  S
O896        H919   0.990       .  S
O897        H911   0.990       .  S
O897        H918   0.990       .  S
O898        C902   1.285       .  A
O899        C902   1.282       .  A
O900        H910   0.990       .  S
O901        H914   0.990       .  S
C902       C1458   1.436       .  S
Zr925       O926   2.442   1_655  S
Zr925       O927   2.443   1_655  S
Zr925       O928   2.453       .  S
Zr925       O931   2.443   1_655  S
Zr925       O933   2.383       .  S
Zr925       O934   2.386   1_655  S
Zr925       O935   2.410       .  S
Zr925       O936   2.401   1_655  S
O926        H982   0.991   1_455  S
O926        H990   0.990   1_455  S
O927        C947   1.283       .  A
O928        C949   1.285       .  A
O929       Zr939   2.427       .  S
O929        C948   1.282       .  A
O930       Zr938   2.423       .  S
O930        C949   1.281       .  A
O931        C948   1.285       .  A
O932       Zr940   2.404       .  S
O932        C947   1.276       .  A
O933       Zr938   2.398       .  S
O933       Zr940   2.384   1_655  S
O934       Zr939   2.393       .  S
O934       Zr940   2.378       .  S
O934        H969   0.964       .  S
O935       Zr938   2.402       .  S
O935       Zr955   2.394       .  S
O935        H972   0.964       .  S
O936       Zr939   2.389       .  S
O936       Zr955   2.391   1_455  S
Zr937       O962   2.447       .  S
Zr937       O956   2.435       .  S
Zr937       O964   2.439   1_655  S
Zr937       O952   2.443       .  S
Zr937       O943   2.401   1_655  S
Zr937       O944   2.403       .  S
Zr937       O945   2.380       .  S
Zr937       O946   2.386   1_655  S
Zr938       O957   2.435       .  S
Zr938       O950   2.435       .  S
Zr938       O951   2.428       .  S
Zr938       O944   2.397       .  S
Zr938       O945   2.386       .  S
Zr939       O941   2.434       .  S
Zr939       O963   2.438       .  S
Zr939       O965   2.428       .  S
Zr939       O943   2.391       .  S
Zr939       O946   2.390       .  S
Zr940       O966   2.436       .  S
Zr940       O967   2.437       .  S
Zr940       O942   2.437   1_455  S
Zr940       O943   2.390       .  S
Zr940       O944   2.388   1_455  S
O941        H978   0.990       .  S
O942        H973   0.991       .  S
O942        H987   0.989       .  S
O944        H970   0.966       .  S
O945       Zr955   2.375       .  S
O946       Zr955   2.374   1_455  S
O946        H971   0.967       .  S
C947       C1078   1.431       .  S
C948       C1556   1.439       .  S
C949       C1176   1.438       .  S
O950        H986   0.990       .  S
O951        C953   1.283       .  A
O952        C953   1.285       .  A
C953       C1260   1.437       .  S
O954       Zr955   2.440   1_455  S
O954        H983   0.990       .  S
Zr955       O958   2.437       .  S
Zr955       O959   2.439   1_655  S
Zr955       O960   2.423       .  S
O956        C961   1.284       .  A
O957        H974   0.990       .  S
O957        H989   0.990       .  S
O958        H975   0.990       .  S
O959        H979   0.990       .  S
O959        H988   0.990       .  S
O960        C961   1.281       .  A
C961       C1066   1.434       .  S
O962        H981   0.990   1_655  S
O962        H985   0.990       .  S
O963        H977   0.990       .  S
O963        H984   0.990       .  S
O964        C968   1.285       .  A
O965        C968   1.283       .  A
O966        H976   0.990       .  S
O967        H980   0.990       .  S
C968       C1442   1.436       .  S
Zr991       O992   2.442       .  S
Zr991       O993   2.440   1_455  S
Zr991       O994   2.449   1_455  S
Zr991       O997   2.442       .  S
Zr991       O999   2.383   1_455  S
Zr991      O1000   2.387       .  S
Zr991      O1001   2.408   1_455  S
Zr991      O1002   2.402       .  S
O992       H1048   0.991   1_455  S
O992       H1056   0.990   1_455  S
O993       C1013   1.283       .  A
O994       C1015   1.285       .  A
O995      Zr1005   2.431       .  S
O995       C1014   1.283       .  A
O996      Zr1004   2.425       .  S
O996       C1015   1.281       .  A
O997       C1014   1.285       .  A
O998      Zr1006   2.410       .  S
O998       C1013   1.278       .  A
O999      Zr1004   2.395       .  S
O999      Zr1006   2.380       .  S
O1000     Zr1005   2.395       .  S
O1000     Zr1006   2.378   1_455  S
O1000      H1035   0.965       .  S
O1001     Zr1004   2.401       .  S
O1001     Zr1021   2.389   1_655  S
O1001      H1038   0.964       .  S
O1002     Zr1005   2.389       .  S
O1002     Zr1021   2.389       .  S
Zr1003     O1028   2.448       .  S
Zr1003     O1022   2.438       .  S
Zr1003     O1030   2.436   1_655  S
Zr1003     O1018   2.438       .  S
Zr1003     O1009   2.401   1_655  S
Zr1003     O1010   2.402       .  S
Zr1003     O1011   2.378       .  S
Zr1003     O1012   2.385   1_655  S
Zr1004     O1023   2.437       .  S
Zr1004     O1016   2.437       .  S
Zr1004     O1017   2.434       .  S
Zr1004     O1010   2.393       .  S
Zr1004     O1011   2.386       .  S
Zr1005     O1007   2.434       .  S
Zr1005     O1029   2.438       .  S
Zr1005     O1031   2.430       .  S
Zr1005     O1009   2.390       .  S
Zr1005     O1012   2.391       .  S
Zr1006     O1032   2.435   1_655  S
Zr1006     O1033   2.435   1_655  S
Zr1006     O1008   2.437       .  S
Zr1006     O1009   2.390   1_655  S
Zr1006     O1010   2.390       .  S
O1007      H1044   0.990       .  S
O1008      H1039   0.991       .  S
O1008      H1053   0.989       .  S
O1010      H1036   0.966       .  S
O1011     Zr1021   2.375   1_655  S
O1012     Zr1021   2.375       .  S
O1012      H1037   0.967       .  S
C1013      C1080   1.432       .  S
C1014      C1374   1.440       .  S
C1015      C1206   1.436       .  S
O1016      H1052   0.990       .  S
O1017      C1019   1.284       .  A
O1018      C1019   1.284       .  A
C1019      C1122   1.437       .  S
O1020     Zr1021   2.438       .  S
O1020      H1049   0.990       .  S
Zr1021     O1024   2.437   1_455  S
Zr1021     O1025   2.438       .  S
Zr1021     O1026   2.415   1_455  S
O1022      C1027   1.284       .  A
O1023      H1040   0.990       .  S
O1023      H1055   0.990       .  S
O1024      H1041   0.990       .  S
O1025      H1045   0.990       .  S
O1025      H1054   0.990       .  S
O1026      C1027   1.279       .  A
C1027      C1064   1.433       .  S
O1028      H1047   0.990   1_655  S
O1028      H1051   0.990       .  S
O1029      H1043   0.990       .  S
O1029      H1050   0.990       .  S
O1030      C1034   1.284       .  A
O1031      C1034   1.283       .  A
O1032      H1042   0.990       .  S
O1033      H1046   0.990       .  S
C1034      C1486   1.435       .  S
C1057      C1065   1.439       .  S
C1057      C1058   1.403       .  A
C1057      C1062   1.400   1_655  A
C1058      C1059   1.399       .  A
C1058      H1067   1.084       .  S
C1059      C1060   1.400       .  A
C1059      H1068   1.083       .  S
C1060      C1063   1.438       .  S
C1060      C1061   1.402   1_655  A
C1061      C1062   1.398       .  A
C1061      H1069   1.084       .  S
C1062      H1070   1.083       .  S
C1063      C1064   1.205       .  T
C1065      C1066   1.206       .  T
C1071      C1079   1.437       .  S
C1071      C1072   1.401   1_655  A
C1071      C1076   1.400       .  A
C1072      C1073   1.398   1_556  A
C1072      H1081   1.084       .  S
C1073      C1074   1.401       .  A
C1073      H1082   1.083       .  S
C1074      C1077   1.437       .  S
C1074      C1075   1.401   1_455  A
C1075      C1076   1.398   1_554  A
C1075      H1083   1.084       .  S
C1076      H1084   1.083       .  S
C1077      C1078   1.204       .  T
C1079      C1080   1.204       .  T
C1085      C1093   1.444       .  S
C1085      C1086   1.403       .  A
C1085      C1090   1.401       .  A
C1086      C1087   1.401       .  A
C1086      H1095   1.083       .  S
C1087      C1088   1.401       .  A
C1087      H1096   1.083       .  S
C1088      C1091   1.444       .  S
C1088      C1089   1.403       .  A
C1089      C1090   1.400       .  A
C1089      H1097   1.083       .  S
C1090      H1098   1.083       .  S
C1091      C1092   1.208       .  T
C1093      C1094   1.208       .  T
C1099      C1107   1.440       .  S
C1099      C1100   1.402       .  A
C1099      C1104   1.401       .  A
C1100      C1101   1.399       .  A
C1100      H1109   1.084       .  S
C1101      C1102   1.401       .  A
C1101      H1110   1.083       .  S
C1102      C1105   1.442       .  S
C1102      C1103   1.402       .  A
C1103      C1104   1.400       .  A
C1103      H1111   1.083       .  S
C1104      H1112   1.083       .  S
C1105      C1106   1.207       .  T
C1107      C1108   1.206       .  T
C1113      C1121   1.442       .  S
C1113      C1114   1.401       .  A
C1113      C1118   1.402       .  A
C1114      C1115   1.400       .  A
C1114      H1123   1.083       .  S
C1115      C1116   1.403       .  A
C1115      H1124   1.083       .  S
C1116      C1119   1.445       .  S
C1116      C1117   1.402       .  A
C1117      C1118   1.401       .  A
C1117      H1125   1.083       .  S
C1118      H1126   1.084       .  S
C1119      C1120   1.209       .  T
C1121      C1122   1.207       .  T
C1127      C1135   1.441       .  S
C1127      C1128   1.401       .  A
C1127      C1132   1.402       .  A
C1128      C1129   1.400       .  A
C1128      H1137   1.083       .  S
C1129      C1130   1.402       .  A
C1129      H1138   1.083       .  S
C1130      C1133   1.443       .  S
C1130      C1131   1.402       .  A
C1131      C1132   1.400       .  A
C1131      H1139   1.083       .  S
C1132      H1140   1.084       .  S
C1133      C1134   1.208       .  T
C1135      C1136   1.206       .  T
C1141      C1149   1.442       .  S
C1141      C1142   1.401       .  A
C1141      C1146   1.402       .  A
C1142      C1143   1.400       .  A
C1142      H1151   1.083       .  S
C1143      C1144   1.403       .  A
C1143      H1152   1.083       .  S
C1144      C1147   1.441       .  S
C1144      C1145   1.401       .  A
C1145      C1146   1.399       .  A
C1145      H1153   1.083       .  S
C1146      H1154   1.083       .  S
C1147      C1148   1.207       .  T
C1149      C1150   1.207       .  T
C1155      C1163   1.441       .  S
C1155      C1156   1.402       .  A
C1155      C1160   1.401       .  A
C1156      C1157   1.399       .  A
C1156      H1165   1.083       .  S
C1157      C1158   1.401       .  A
C1157      H1166   1.083       .  S
C1158      C1161   1.440       .  S
C1158      C1159   1.402       .  A
C1159      C1160   1.400       .  A
C1159      H1167   1.084       .  S
C1160      H1168   1.083       .  S
C1161      C1162   1.206       .  T
C1163      C1164   1.207       .  T
C1169      C1177   1.444       .  S
C1169      C1170   1.403       .  A
C1169      C1174   1.402       .  A
C1170      C1171   1.400       .  A
C1170      H1179   1.083       .  S
C1171      C1172   1.401       .  A
C1171      H1180   1.083       .  S
C1172      C1175   1.444       .  S
C1172      C1173   1.403       .  A
C1173      C1174   1.401       .  A
C1173      H1181   1.083       .  S
C1174      H1182   1.083       .  S
C1175      C1176   1.208       .  T
C1177      C1178   1.209       .  T
C1183      C1191   1.443       .  S
C1183      C1184   1.402       .  A
C1183      C1188   1.402       .  A
C1184      C1185   1.400       .  A
C1184      H1193   1.083       .  S
C1185      C1186   1.402       .  A
C1185      H1194   1.083       .  S
C1186      C1189   1.442       .  S
C1186      C1187   1.401       .  A
C1187      C1188   1.400       .  A
C1187      H1195   1.083       .  S
C1188      H1196   1.083       .  S
C1189      C1190   1.207       .  T
C1191      C1192   1.208       .  T
C1197      C1205   1.441       .  S
C1197      C1198   1.401       .  A
C1197      C1202   1.402       .  A
C1198      C1199   1.400       .  A
C1198      H1207   1.083       .  S
C1199      C1200   1.402       .  A
C1199      H1208   1.083       .  S
C1200      C1203   1.442       .  S
C1200      C1201   1.401       .  A
C1201      C1202   1.400       .  A
C1201      H1209   1.083       .  S
C1202      H1210   1.083       .  S
C1203      C1204   1.207       .  T
C1205      C1206   1.207       .  T
C1211      C1219   1.443       .  S
C1211      C1212   1.402       .  A
C1211      C1216   1.402       .  A
C1212      C1213   1.401       .  A
C1212      H1221   1.083       .  S
C1213      C1214   1.402       .  A
C1213      H1222   1.083       .  S
C1214      C1217   1.444       .  S
C1214      C1215   1.402       .  A
C1215      C1216   1.400       .  A
C1215      H1223   1.083       .  S
C1216      H1224   1.083       .  S
C1217      C1218   1.209       .  T
C1219      C1220   1.208       .  T
C1225      C1233   1.438       .  S
C1225      C1226   1.401       .  A
C1225      C1230   1.401       .  A
C1226      C1227   1.398       .  A
C1226      H1235   1.083       .  S
C1227      C1228   1.401       .  A
C1227      H1236   1.083       .  S
C1228      C1231   1.438       .  S
C1228      C1229   1.401       .  A
C1229      C1230   1.399       .  A
C1229      H1237   1.083       .  S
C1230      H1238   1.083       .  S
C1231      C1232   1.205       .  T
C1233      C1234   1.205       .  T
C1239      C1247   1.441       .  S
C1239      C1240   1.400       .  A
C1239      C1244   1.403       .  A
C1240      C1241   1.400       .  A
C1240      H1249   1.083       .  S
C1241      C1242   1.403       .  A
C1241      H1250   1.084       .  S
C1242      C1245   1.440       .  S
C1242      C1243   1.400       .  A
C1243      C1244   1.399       .  A
C1243      H1251   1.083       .  S
C1244      H1252   1.084       .  S
C1245      C1246   1.206       .  T
C1247      C1248   1.207       .  T
C1253      C1261   1.443       .  S
C1253      C1254   1.403       .  A
C1253      C1258   1.401       .  A
C1254      C1255   1.401       .  A
C1254      H1263   1.083       .  S
C1255      C1256   1.401       .  A
C1255      H1264   1.083       .  S
C1256      C1259   1.443       .  S
C1256      C1257   1.402       .  A
C1257      C1258   1.400       .  A
C1257      H1265   1.083       .  S
C1258      H1266   1.083       .  S
C1259      C1260   1.208       .  T
C1261      C1262   1.208       .  T
C1267      C1275   1.443       .  S
C1267      C1268   1.402       .  A
C1267      C1272   1.401       .  A
C1268      C1269   1.400       .  A
C1268      H1277   1.083       .  S
C1269      C1270   1.402       .  A
C1269      H1278   1.083       .  S
C1270      C1273   1.441       .  S
C1270      C1271   1.401       .  A
C1271      C1272   1.399       .  A
C1271      H1279   1.083       .  S
C1272      H1280   1.083       .  S
C1273      C1274   1.207       .  T
C1275      C1276   1.208       .  T
C1281      C1289   1.448       .  S
C1281      C1282   1.402       .  A
C1281      C1286   1.403       .  A
C1282      C1283   1.402       .  A
C1282      H1291   1.083       .  S
C1283      C1284   1.403       .  A
C1283      H1292   1.083       .  S
C1284      C1287   1.448       .  S
C1284      C1285   1.403       .  A
C1285      C1286   1.403       .  A
C1285      H1293   1.083       .  S
C1286      H1294   1.083       .  S
C1287      C1288   1.211       .  T
C1289      C1290   1.211       .  T
C1295      C1303   1.442       .  S
C1295      C1296   1.401       .  A
C1295      C1300   1.402       .  A
C1296      C1297   1.400       .  A
C1296      H1305   1.083       .  S
C1297      C1298   1.402       .  A
C1297      H1306   1.083       .  S
C1298      C1301   1.445       .  S
C1298      C1299   1.402       .  A
C1299      C1300   1.401       .  A
C1299      H1307   1.083       .  S
C1300      H1308   1.084       .  S
C1301      C1302   1.209       .  T
C1303      C1304   1.207       .  T
C1309      C1317   1.435       .  S
C1309      C1310   1.401   1_545  A
C1309      C1314   1.400       .  A
C1310      C1311   1.398       .  A
C1310      H1319   1.084       .  S
C1311      C1312   1.400       .  A
C1311      H1320   1.083       .  S
C1312      C1315   1.436       .  S
C1312      C1313   1.401   1_565  A
C1313      C1314   1.397       .  A
C1313      H1321   1.083       .  S
C1314      H1322   1.084       .  S
C1315      C1316   1.204       .  T
C1317      C1318   1.203       .  T
C1323      C1331   1.438   1_545  S
C1323      C1324   1.400   1_545  A
C1323      C1328   1.401       .  A
C1324      C1325   1.399       .  A
C1324      H1333   1.083       .  S
C1325      C1326   1.402   1_565  A
C1325      H1334   1.083       .  S
C1326      C1329   1.440       .  S
C1326      C1327   1.401       .  A
C1327      C1328   1.399       .  A
C1327      H1335   1.083       .  S
C1328      H1336   1.084       .  S
C1329      C1330   1.206       .  T
C1331      C1332   1.205       .  T
C1337      C1345   1.444       .  S
C1337      C1338   1.402       .  A
C1337      C1342   1.402       .  A
C1338      C1339   1.401       .  A
C1338      H1347   1.083       .  S
C1339      C1340   1.402       .  A
C1339      H1348   1.083       .  S
C1340      C1343   1.445       .  S
C1340      C1341   1.403       .  A
C1341      C1342   1.401       .  A
C1341      H1349   1.083       .  S
C1342      H1350   1.083       .  S
C1343      C1344   1.209       .  T
C1345      C1346   1.208       .  T
C1351      C1359   1.445       .  S
C1351      C1352   1.403       .  A
C1351      C1356   1.401       .  A
C1352      C1353   1.402       .  A
C1352      H1361   1.083       .  S
C1353      C1354   1.403       .  A
C1353      H1362   1.083       .  S
C1354      C1357   1.444       .  S
C1354      C1355   1.401       .  A
C1355      C1356   1.400       .  A
C1355      H1363   1.083       .  S
C1356      H1364   1.083       .  S
C1357      C1358   1.208       .  T
C1359      C1360   1.209       .  T
C1365      C1373   1.444       .  S
C1365      C1366   1.402       .  A
C1365      C1370   1.402       .  A
C1366      C1367   1.400       .  A
C1366      H1375   1.083       .  S
C1367      C1368   1.402       .  A
C1367      H1376   1.083       .  S
C1368      C1371   1.442       .  S
C1368      C1369   1.401       .  A
C1369      C1370   1.400       .  A
C1369      H1377   1.083       .  S
C1370      H1378   1.083       .  S
C1371      C1372   1.207       .  T
C1373      C1374   1.209       .  T
C1379      C1387   1.442       .  S
C1379      C1380   1.401       .  A
C1379      C1384   1.402       .  A
C1380      C1381   1.400       .  A
C1380      H1389   1.083       .  S
C1381      C1382   1.403       .  A
C1381      H1390   1.084       .  S
C1382      C1385   1.441       .  S
C1382      C1383   1.400       .  A
C1383      C1384   1.399       .  A
C1383      H1391   1.083       .  S
C1384      H1392   1.083       .  S
C1385      C1386   1.207       .  T
C1387      C1388   1.207       .  T
C1393      C1401   1.438       .  S
C1393      C1394   1.402       .  A
C1393      C1398   1.400       .  A
C1394      C1395   1.399       .  A
C1394      H1403   1.084       .  S
C1395      C1396   1.401       .  A
C1395      H1404   1.083       .  S
C1396      C1399   1.438       .  S
C1396      C1397   1.401       .  A
C1397      C1398   1.398       .  A
C1397      H1405   1.083       .  S
C1398      H1406   1.083       .  S
C1399      C1400   1.205       .  T
C1401      C1402   1.205       .  T
C1407      C1415   1.439       .  S
C1407      C1408   1.401       .  A
C1407      C1412   1.401       .  A
C1408      C1409   1.398       .  A
C1408      H1417   1.083       .  S
C1409      C1410   1.401       .  A
C1409      H1418   1.084       .  S
C1410      C1413   1.438       .  S
C1410      C1411   1.401       .  A
C1411      C1412   1.399       .  A
C1411      H1419   1.083       .  S
C1412      H1420   1.083       .  S
C1413      C1414   1.205       .  T
C1415      C1416   1.206       .  T
C1421      C1429   1.439       .  S
C1421      C1422   1.401       .  A
C1421      C1426   1.402       .  A
C1422      C1423   1.398       .  A
C1422      H1431   1.083       .  S
C1423      C1424   1.401       .  A
C1423      H1432   1.084       .  S
C1424      C1427   1.438       .  S
C1424      C1425   1.401       .  A
C1425      C1426   1.399       .  A
C1425      H1433   1.083       .  S
C1426      H1434   1.083       .  S
C1427      C1428   1.204       .  T
C1429      C1430   1.205       .  T
C1435      C1443   1.443       .  S
C1435      C1436   1.402       .  A
C1435      C1440   1.402       .  A
C1436      C1437   1.400       .  A
C1436      H1445   1.083       .  S
C1437      C1438   1.402       .  A
C1437      H1446   1.084       .  S
C1438      C1441   1.441       .  S
C1438      C1439   1.401       .  A
C1439      C1440   1.400       .  A
C1439      H1447   1.083       .  S
C1440      H1448   1.083       .  S
C1441      C1442   1.207       .  T
C1443      C1444   1.208       .  T
C1449      C1457   1.441       .  S
C1449      C1450   1.402       .  A
C1449      C1454   1.401       .  A
C1450      C1451   1.400       .  A
C1450      H1459   1.083       .  S
C1451      C1452   1.401       .  A
C1451      H1460   1.083       .  S
C1452      C1455   1.441       .  S
C1452      C1453   1.402       .  A
C1453      C1454   1.399       .  A
C1453      H1461   1.083       .  S
C1454      H1462   1.083       .  S
C1455      C1456   1.207       .  T
C1457      C1458   1.206       .  T
C1463      C1471   1.442       .  S
C1463      C1464   1.403       .  A
C1463      C1468   1.401       .  A
C1464      C1465   1.400       .  A
C1464      H1473   1.083       .  S
C1465      C1466   1.401       .  A
C1465      H1474   1.083       .  S
C1466      C1469   1.443       .  S
C1466      C1467   1.402       .  A
C1467      C1468   1.400       .  A
C1467      H1475   1.083       .  S
C1468      H1476   1.083       .  S
C1469      C1470   1.208       .  T
C1471      C1472   1.207       .  T
C1477      C1485   1.440       .  S
C1477      C1478   1.402       .  A
C1477      C1482   1.401       .  A
C1478      C1479   1.399       .  A
C1478      H1487   1.083       .  S
C1479      C1480   1.401       .  A
C1479      H1488   1.083       .  S
C1480      C1483   1.440       .  S
C1480      C1481   1.401       .  A
C1481      C1482   1.399       .  A
C1481      H1489   1.083       .  S
C1482      H1490   1.083       .  S
C1483      C1484   1.206       .  T
C1485      C1486   1.206       .  T
C1491      C1499   1.442       .  S
C1491      C1492   1.402       .  A
C1491      C1496   1.401       .  A
C1492      C1493   1.401       .  A
C1492      H1501   1.083       .  S
C1493      C1494   1.402       .  A
C1493      H1502   1.083       .  S
C1494      C1497   1.442       .  S
C1494      C1495   1.401       .  A
C1495      C1496   1.399       .  A
C1495      H1503   1.083       .  S
C1496      H1504   1.083       .  S
C1497      C1498   1.207       .  T
C1499      C1500   1.208       .  T
C1505      C1513   1.444       .  S
C1505      C1506   1.402       .  A
C1505      C1510   1.402       .  A
C1506      C1507   1.400       .  A
C1506      H1515   1.083       .  S
C1507      C1508   1.401       .  A
C1507      H1516   1.083       .  S
C1508      C1511   1.443       .  S
C1508      C1509   1.403       .  A
C1509      C1510   1.401       .  A
C1509      H1517   1.084       .  S
C1510      H1518   1.083       .  S
C1511      C1512   1.208       .  T
C1513      C1514   1.208       .  T
C1519      C1527   1.438       .  S
C1519      C1520   1.400       .  A
C1519      C1524   1.402       .  A
C1520      C1521   1.399       .  A
C1520      H1529   1.083       .  S
C1521      C1522   1.402       .  A
C1521      H1530   1.084       .  S
C1522      C1525   1.439       .  S
C1522      C1523   1.400       .  A
C1523      C1524   1.398       .  A
C1523      H1531   1.083       .  S
C1524      H1532   1.084       .  S
C1525      C1526   1.205       .  T
C1527      C1528   1.204       .  T
C1533      C1541   1.437       .  S
C1533      C1534   1.400       .  A
C1533      C1538   1.402       .  A
C1534      C1535   1.398       .  A
C1534      H1543   1.083       .  S
C1535      C1536   1.402       .  A
C1535      H1544   1.084       .  S
C1536      C1539   1.436       .  S
C1536      C1537   1.399       .  A
C1537      C1538   1.398       .  A
C1537      H1545   1.083       .  S
C1538      H1546   1.084       .  S
C1539      C1540   1.203       .  T
C1541      C1542   1.204       .  T
C1547      C1555   1.444       .  S
C1547      C1548   1.402       .  A
C1547      C1552   1.402       .  A
C1548      C1549   1.400       .  A
C1548      H1557   1.083       .  S
C1549      C1550   1.402       .  A
C1549      H1558   1.083       .  S
C1550      C1553   1.443       .  S
C1550      C1551   1.402       .  A
C1551      C1552   1.401       .  A
C1551      H1559   1.083       .  S
C1552      H1560   1.083       .  S
C1553      C1554   1.208       .  T
C1555      C1556   1.208       .  T
C1561      C1569   1.442       .  S
C1561      C1562   1.402       .  A
C1561      C1566   1.402       .  A
C1562      C1563   1.400       .  A
C1562      H1571   1.083       .  S
C1563      C1564   1.401       .  A
C1563      H1572   1.083       .  S
C1564      C1567   1.443       .  S
C1564      C1565   1.402       .  A
C1565      C1566   1.400       .  A
C1565      H1573   1.083       .  S
C1566      H1574   1.083       .  S
C1567      C1568   1.208       .  T
C1569      C1570   1.207       .  T
C1575      C1583   1.442       .  S
C1575      C1576   1.402       .  A
C1575      C1580   1.402       .  A
C1576      C1577   1.400       .  A
C1576      H1585   1.083       .  S
C1577      C1578   1.402       .  A
C1577      H1586   1.083       .  S
C1578      C1581   1.443       .  S
C1578      C1579   1.402       .  A
C1579      C1580   1.400       .  A
C1579      H1587   1.083       .  S
C1580      H1588   1.083       .  S
C1581      C1582   1.208       .  T
C1583      C1584   1.207       .  T
C1589      C1597   1.445       .  S
C1589      C1590   1.402       .  A
C1589      C1594   1.402       .  A
C1590      C1591   1.401       .  A
C1590      H1599   1.083       .  S
C1591      C1592   1.402       .  A
C1591      H1600   1.083       .  S
C1592      C1595   1.444       .  S
C1592      C1593   1.401       .  A
C1593      C1594   1.400       .  A
C1593      H1601   1.083       .  S
C1594      H1602   1.083       .  S
C1595      C1596   1.208       .  T
C1597      C1598   1.209       .  T
C1603      C1611   1.442       .  S
C1603      C1604   1.401       .  A
C1603      C1608   1.402       .  A
C1604      C1605   1.400       .  A
C1604      H1613   1.083       .  S
C1605      C1606   1.402       .  A
C1605      H1614   1.083       .  S
C1606      C1609   1.442       .  S
C1606      C1607   1.402       .  A
C1607      C1608   1.400       .  A
C1607      H1615   1.083       .  S
C1608      H1616   1.083       .  S
C1609      C1610   1.207       .  T
C1611      C1612   1.207       .  T
C1617      C1625   1.437       .  S
C1617      C1618   1.402       .  A
C1617      C1622   1.400       .  A
C1618      C1619   1.398       .  A
C1618      H1627   1.084       .  S
C1619      C1620   1.400       .  A
C1619      H1628   1.083       .  S
C1620      C1623   1.437       .  S
C1620      C1621   1.401       .  A
C1621      C1622   1.397       .  A
C1621      H1629   1.083       .  S
C1622      H1630   1.083       .  S
C1623      C1624   1.204       .  T
C1625      C1626   1.204       .  T
C1631      C1639   1.443       .  S
C1631      C1632   1.402       .  A
C1631      C1636   1.402       .  A
C1632      C1633   1.401       .  A
C1632      H1641   1.083       .  S
C1633      C1634   1.402       .  A
C1633      H1642   1.083       .  S
C1634      C1637   1.443       .  S
C1634      C1635   1.401       .  A
C1635      C1636   1.400       .  A
C1635      H1643   1.083       .  S
C1636      H1644   1.083       .  S
C1637      C1638   1.208       .  T
C1639      C1640   1.208       .  T
C1645      C1653   1.440   1_565  S
C1645      C1646   1.400   1_465  A
C1645      C1650   1.403       .  A
C1646      C1647   1.399       .  A
C1646      H1655   1.083       .  S
C1647      C1648   1.403   1_645  A
C1647      H1656   1.084       .  S
C1648      C1651   1.441       .  S
C1648      C1649   1.400       .  A
C1649      C1650   1.399       .  A
C1649      H1657   1.083       .  S
C1650      H1658   1.084       .  S
C1651      C1652   1.207       .  T
C1653      C1654   1.206       .  T
C1659      C1667   1.439       .  S
C1659      C1660   1.400       .  A
C1659      C1664   1.402   1_465  A
C1660      C1661   1.399   1_556  A
C1660      H1669   1.083       .  S
C1661      C1662   1.402   1_565  A
C1661      H1670   1.083       .  S
C1662      C1665   1.440       .  S
C1662      C1663   1.400   1_455  A
C1663      C1664   1.399   1_554  A
C1663      H1671   1.083       .  S
C1664      H1672   1.084       .  S
C1665      C1666   1.206       .  T
C1667      C1668   1.205       .  T
C1673      C1681   1.445       .  S
C1673      C1674   1.403       .  A
C1673      C1678   1.402       .  A
C1674      C1675   1.401       .  A
C1674      H1683   1.083       .  S
C1675      C1676   1.402       .  A
C1675      H1684   1.084       .  S
C1676      C1679   1.442       .  S
C1676      C1677   1.402       .  A
C1677      C1678   1.400       .  A
C1677      H1685   1.083       .  S
C1678      H1686   1.083       .  S
C1679      C1680   1.207       .  T
C1681      C1682   1.209       .  T
C1687      C1695   1.445       .  S
C1687      C1688   1.402       .  A
C1687      C1692   1.402       .  A
C1688      C1689   1.401       .  A
C1688      H1697   1.083       .  S
C1689      C1690   1.402       .  A
C1689      H1698   1.083       .  S
C1690      C1693   1.446       .  S
C1690      C1691   1.403       .  A
C1691      C1692   1.401       .  A
C1691      H1699   1.083       .  S
C1692      H1700   1.083       .  S
C1693      C1694   1.210       .  T
C1695      C1696   1.209       .  T
C1701      C1709   1.441       .  S
C1701      C1702   1.402       .  A
C1701      C1706   1.402       .  A
C1702      C1703   1.400       .  A
C1702      H1711   1.083       .  S
C1703      C1704   1.402       .  A
C1703      H1712   1.084       .  S
C1704      C1707   1.441       .  S
C1704      C1705   1.401       .  A
C1705      C1706   1.399       .  A
C1705      H1713   1.083       .  S
C1706      H1714   1.083       .  S
C1707      C1708   1.207       .  T
C1709      C1710   1.207       .  T
C1715      C1723   1.440       .  S
C1715      C1716   1.401       .  A
C1715      C1720   1.402       .  A
C1716      C1717   1.400       .  A
C1716      H1725   1.083       .  S
C1717      C1718   1.403       .  A
C1717      H1726   1.083       .  S
C1718      C1721   1.440       .  S
C1718      C1719   1.400       .  A
C1719      C1720   1.399       .  A
C1719      H1727   1.083       .  S
C1720      H1728   1.084       .  S
C1721      C1722   1.206       .  T
C1723      C1724   1.206       .  T
