geometry optimzed in LAMMPS
_audit_creation_date              2020-12-01 
_audit_creation_method            'lammps2cif' 
_symmetry_space_group_name_H-M    'P1' 
_symmetry_Int_Tables_number       1 
_symmetry_cell_setting            triclinic 
loop_ 
_symmetry_equiv_pos_as_xyz 
  x,y,z 
_cell_length_a                    55.64229785 
_cell_length_b                    55.652736281744005 
_cell_length_c                    31.968492983057057 
_cell_angle_alpha                 89.72896546971646 
_cell_angle_beta                  89.97391329315589 
_cell_angle_gamma                 90.14694998995077 
loop_ 
_atom_site_label 
_atom_site_type_symbol 
_atom_site_fract_x 
_atom_site_fract_y 
_atom_site_fract_z 
_atom_site_charge 
Fe1        Fe  0.34430079  0.15843547  0.33641825     1.65800
Fe2        Fe  0.31653205  0.18493177  0.42047713     1.73200
Fe3        Fe  0.30169723  0.20215530  0.32034058     1.54400
O4          O  0.33088506  0.21105854  0.28315165    -0.79400
O5          O  0.27940616  0.18432520  0.41697487    -0.77700
O6          O  0.35811049  0.18217704  0.29250862    -0.81900
O7          O  0.32039981  0.14494467  0.29270800    -0.76800
O8          O  0.30757105  0.23330649  0.35399350    -0.78600
O9          O  0.31540731  0.14820890  0.43070236    -0.81300
C10         C  0.30215267  0.15325101  0.27378016     0.99500
C11         C  0.35082457  0.20121799  0.27474412     1.06900
O12         O  0.32080841  0.18184646  0.35902833    -1.10300
O13         O  0.35318082  0.18653565  0.43148457    -0.72700
O14         O  0.37125749  0.16955728  0.37675394    -0.76200
O15         O  0.29323414  0.17374103  0.28135105    -0.76900
C16         C  0.37189269  0.18024865  0.41171850     0.98400
O17         O  0.33357232  0.13101441  0.37649118    -0.74800
O18         O  0.31652709  0.22203727  0.41920470    -0.80000
C19         C  0.26411592  0.18975772  0.38909577     1.01000
C20         C  0.31239018  0.23803032  0.39184204     1.06900
O21         O  0.26981643  0.19609873  0.35221686    -0.75700
C22         C  0.32258618  0.12981952  0.41119043     1.05200
N23         N  0.23558415  0.06940575  0.98785555    -0.01200
C24         C  0.23830208  0.04766579  0.96963967     0.01400
C25         C  0.22626727  0.04704747  0.93188009    -0.21500
C26         C  0.21577870  0.06925826  0.92666486    -0.21700
C27         C  0.22182057  0.08254558  0.96145877     0.01300
H28         H  0.22575634  0.03230537  0.90993762     0.15100
H29         H  0.20546020  0.07525277  0.89991020     0.15100
N30         N  0.42904313  0.25683952  0.97739933    -0.01200
C31         C  0.45047721  0.25318865  0.95857149     0.01400
C32         C  0.45075101  0.26379047  0.91941839    -0.21500
C33         C  0.42855817  0.27432694  0.91399563    -0.21700
C34         C  0.41567543  0.26973407  0.95008541     0.01300
H35         H  0.46534152  0.26359704  0.89702467     0.15100
H36         H  0.42241488  0.28397450  0.88655917     0.15100
Fe37       Fe  0.34528181  0.85083126  0.84270027     1.65800
Fe38       Fe  0.31748073  0.82342553  0.92642461     1.73200
Fe39       Fe  0.30181686  0.80796498  0.82613922     1.54400
O40         O  0.29382144  0.83699794  0.78790613    -0.79400
O41         O  0.31899780  0.78638325  0.92390487    -0.77700
O42         O  0.32148002  0.86525387  0.79996625    -0.81900
O43         O  0.35854869  0.82742135  0.79786522    -0.76800
O44         O  0.27014775  0.81421334  0.85792793    -0.78600
O45         O  0.35410469  0.82338705  0.93808379    -0.81300
C46         C  0.35079163  0.80860192  0.78002384     0.99500
C47         C  0.30299700  0.85754022  0.78113011     1.06900
O48         O  0.32154118  0.82735497  0.86503942    -1.10300
O49         O  0.31482892  0.85998521  0.93613579    -0.72700
O50         O  0.33470911  0.87766309  0.88370777    -0.76200
O51         O  0.33070674  0.79899535  0.78869370    -0.76900
C52         C  0.32248465  0.87853464  0.91720186     0.98400
O53         O  0.37232142  0.83917085  0.88220686    -0.74800
O54         O  0.28034749  0.82238594  0.92379222    -0.80000
C55         C  0.31349315  0.77095439  0.89644414     1.01000
C56         C  0.26479479  0.81858211  0.89564047     1.06900
O57         O  0.30710869  0.77641791  0.85949623    -0.75700
C58         C  0.37286947  0.82928161  0.91797974     1.05200
N59         N  0.42981359  0.74186037  0.48972468    -0.01200
C60         C  0.45224284  0.74293151  0.47333174     0.01400
C61         C  0.45337066  0.72977456  0.43686309    -0.21500
C62         C  0.43077070  0.72030511  0.43052952    -0.21700
C63         C  0.41673106  0.72806970  0.46336904     0.01300
H64         H  0.46873258  0.72791333  0.41636401     0.15100
H65         H  0.42505528  0.70953362  0.40423227     0.15100
N66         N  0.24455910  0.93501029  0.48625770    -0.01200
C67         C  0.24791774  0.95618420  0.46600287     0.01400
C68         C  0.23666006  0.95576957  0.42752862    -0.21500
C69         C  0.22604593  0.93347811  0.42395059    -0.21700
C70         C  0.23122437  0.92114441  0.46037689     0.01300
H71         H  0.23657164  0.96994525  0.40424067     0.15100
H72         H  0.21607699  0.92683134  0.39732784     0.15100
Fe73       Fe  0.64919211  0.85101510  0.34324755     1.65800
Fe74       Fe  0.67644824  0.82481370  0.42853057     1.73200
Fe75       Fe  0.69296081  0.80842603  0.32903061     1.54400
O76         O  0.66428454  0.79869543  0.29138396    -0.79400
O77         O  0.71351516  0.82540463  0.42659129    -0.77700
O78         O  0.63638151  0.82704498  0.29925476    -0.81900
O79         O  0.67324700  0.86524167  0.30004690    -0.76800
O80         O  0.68767204  0.77716700  0.36306308    -0.78600
O81         O  0.67756115  0.86152634  0.43793472    -0.81300
C82         C  0.69180296  0.85731499  0.28161915     0.99500
C83         C  0.64419426  0.80807105  0.28225690     1.06900
O84         O  0.67290843  0.82807957  0.36688563    -1.10300
O85         O  0.63980864  0.82304154  0.43863878    -0.72700
O86         O  0.62195824  0.83913865  0.38273141    -0.76200
O87         O  0.70102706  0.83700040  0.28971828    -0.76900
C88         C  0.62119058  0.82859791  0.41800293     0.98400
O89         O  0.65914076  0.87841750  0.38336540    -0.74800
O90         O  0.67639353  0.78774581  0.42738991    -0.80000
C91         C  0.72930109  0.82102671  0.39911356     1.01000
C92         C  0.68174531  0.77207276  0.40036913     1.06900
O93         O  0.72431206  0.81544629  0.36167019    -0.75700
C94         C  0.67028024  0.87978135  0.41785691     1.05200
N95         N  0.75048680  0.93330981  0.98336159    -0.01200
C96         C  0.74580666  0.95425041  0.96333771     0.01400
C97         C  0.75582125  0.95422457  0.92380256    -0.21500
C98         C  0.76706325  0.93237905  0.91928426    -0.21700
C99         C  0.76346145  0.91999673  0.95626509     0.01300
H100        H  0.75486309  0.96843587  0.90063904     0.15100
H101        H  0.77654654  0.92611254  0.89187219     0.15100
N102        N  0.56699950  0.75000899  0.98635986    -0.01200
C103        C  0.54567698  0.75379143  0.96705044     0.01400
C104        C  0.54574317  0.74360140  0.92775332    -0.21500
C105        C  0.56797817  0.73320864  0.92263505    -0.21700
C106        C  0.58059042  0.73744059  0.95903041     0.01300
H107        H  0.53135580  0.74404572  0.90499477     0.15100
H108        H  0.57438451  0.72397020  0.89509751     0.15100
Fe109      Fe  0.65012865  0.15523193  0.83793587     1.65800
Fe110      Fe  0.67707880  0.18206675  0.92256571     1.73200
Fe111      Fe  0.69388777  0.19805184  0.82272331     1.54400
O112        O  0.70290498  0.16923338  0.78538818    -0.79400
O113        O  0.67745031  0.21910993  0.92005961    -0.77700
O114        O  0.67373247  0.14202314  0.79352449    -0.81900
O115        O  0.63649188  0.17952538  0.79493780    -0.76800
O116        O  0.72505919  0.19224689  0.85656516    -0.78600
O117        O  0.64046508  0.18379491  0.93247850    -0.81300
C118        C  0.64490719  0.19776627  0.77597257     0.99500
C119        C  0.69291172  0.14945112  0.77627841     1.06900
O120        O  0.67370503  0.17847743  0.86103772    -1.10300
O121        O  0.67764800  0.14546041  0.93320701    -0.72700
O122        O  0.66117485  0.12787355  0.87752647    -0.76200
O123        O  0.66550171  0.20657360  0.78349953    -0.76900
C124        C  0.67135418  0.12696762  0.91298323     0.98400
O125        O  0.62299213  0.16548258  0.87855030    -0.74800
O126        O  0.71417254  0.18126713  0.92109141    -0.80000
C127        C  0.68227198  0.23470501  0.89229167     1.01000
C128        C  0.73000567  0.18630617  0.89391817     1.06900
O129        O  0.68767811  0.22953269  0.85488507    -0.75700
C130        C  0.62200529  0.17651075  0.91312550     1.05200
N131        N  0.56511958  0.26274602  0.48529477    -0.01200
C132        C  0.54394815  0.25993935  0.46501988     0.01400
C133        C  0.54427660  0.27241073  0.42756071    -0.21500
C134        C  0.56650377  0.28328943  0.42472331    -0.21700
C135        C  0.57884074  0.27703741  0.46057903     0.01300
H136        H  0.53005917  0.27321122  0.40450915     0.15100
H137        H  0.57305368  0.29423609  0.39905327     0.15100
N138        N  0.75541224  0.07248523  0.48264610    -0.01200
C139        C  0.75168142  0.05147970  0.46248565     0.01400
C140        C  0.76430668  0.05117573  0.42528236    -0.21500
C141        C  0.77619559  0.07287565  0.42242825    -0.21700
C142        C  0.77035963  0.08552390  0.45802450     0.01300
H143        H  0.76441769  0.03697518  0.40227244     0.15100
H144        H  0.78731719  0.07899394  0.39669840     0.15100
Fe145      Fe  0.84366298  0.35130254  0.33901138     1.65800
Fe146      Fe  0.81707894  0.32532346  0.42527031     1.73200
Fe147      Fe  0.79895716  0.30920919  0.32647318     1.54400
O148        O  0.79046636  0.33792350  0.28795549    -0.79400
O149        O  0.81647937  0.28821925  0.42393755    -0.77700
O150        O  0.81984981  0.36494336  0.29521286    -0.81900
O151        O  0.85625985  0.32662422  0.29608357    -0.76800
O152        O  0.76813178  0.31617867  0.36076770    -0.78600
O153        O  0.85378945  0.32326779  0.43422972    -0.81300
C154        C  0.84754464  0.30819629  0.27841140     0.99500
C155        C  0.80058010  0.35762219  0.27830917     1.06900
O156        O  0.81988080  0.32859063  0.36353150    -1.10300
O157        O  0.81678038  0.36204228  0.43451828    -0.72700
O158        O  0.83361655  0.37904058  0.37830359    -0.76200
O159        O  0.82696903  0.29961850  0.28712581    -0.76900
C160        C  0.82336168  0.38033005  0.41366922     0.98400
O161        O  0.87106934  0.34043764  0.37871549    -0.74800
O162        O  0.78000498  0.32641464  0.42494757    -0.80000
C163        C  0.81081560  0.27259768  0.39693496     1.01000
C164        C  0.76374834  0.32199614  0.39833337     1.06900
O165        O  0.80458030  0.27779054  0.35983737    -0.75700
C166        C  0.87220692  0.32970615  0.41373029     1.05200
N167        N  0.92789139  0.24797224  0.98562965    -0.01200
C168        C  0.94915288  0.25215748  0.96625751     0.01400
C169        C  0.94914362  0.24216376  0.92680503    -0.21500
C170        C  0.92703749  0.23141258  0.92166678    -0.21700
C171        C  0.91444588  0.23525290  0.95820881     0.01300
H172        H  0.96354577  0.24284383  0.90405990     0.15100
H173        H  0.92074795  0.22208610  0.89411625     0.15100
N174        N  0.74590946  0.43230544  0.97797766    -0.01200
C175        C  0.74988853  0.45321317  0.95742443     0.01400
C176        C  0.74100575  0.45202231  0.91715483    -0.21500
C177        C  0.73117691  0.42943831  0.91277718    -0.21700
C178        C  0.73447307  0.41784350  0.95057800     0.01300
H179        H  0.74169766  0.46598867  0.89350839     0.15100
H180        H  0.72271313  0.42224064  0.88504063     0.15100
Fe181      Fe  0.15037878  0.34936892  0.83742918     1.65800
Fe182      Fe  0.17713383  0.32130453  0.92132410     1.73200
Fe183      Fe  0.19324973  0.30609451  0.82113842     1.54400
O184        O  0.16407659  0.29687643  0.78435388    -0.79400
O185        O  0.21423901  0.32001320  0.91914498    -0.77700
O186        O  0.13715157  0.32620173  0.79226233    -0.81900
O187        O  0.17456944  0.36381617  0.79490650    -0.76800
O188        O  0.18817829  0.27452132  0.85471690    -0.78600
O189        O  0.18000295  0.35782474  0.93189827    -0.81300
C190        C  0.19246471  0.35555259  0.77510150     0.99500
C191        C  0.14432426  0.30695464  0.77521818     1.06900
O192        O  0.17361776  0.32558619  0.85991038    -1.10300
O193        O  0.14048336  0.32131200  0.93216045    -0.72700
O194        O  0.12288446  0.33765352  0.87628700    -0.76200
O195        O  0.20113773  0.33483186  0.78186779    -0.84900
C196        C  0.12194758  0.32739733  0.91174941     0.98400
O197        O  0.16093587  0.37589548  0.87908877    -0.74800
O198        O  0.17518573  0.28430728  0.91844980    -0.80000
C199        C  0.22998974  0.31664233  0.89114055     1.01000
C200        C  0.18121121  0.26894435  0.89129808     1.06900
O201        O  0.22491524  0.31277587  0.85306903    -0.75700
C202        C  0.17266032  0.37652078  0.91311966     1.05200
N203        N  0.25328981  0.43659354  0.48147590    -0.01200
C204        C  0.25019264  0.45801174  0.46195322     0.01400
C205        C  0.26228388  0.45835281  0.42421239    -0.21500
C206        C  0.27316244  0.43627696  0.42029025    -0.21700
C207        C  0.26729746  0.42335819  0.45581708     0.01300
H208        H  0.26272505  0.47287569  0.40158619     0.15100
H209        H  0.28372871  0.43014960  0.39400409     0.15100
N210        N  0.06474620  0.24590296  0.48245715    -0.01200
C211        C  0.04318116  0.24912227  0.46365580     0.01400
C212        C  0.04252032  0.23717168  0.42591162    -0.21500
C213        C  0.06454781  0.22625995  0.42124891    -0.21700
C214        C  0.07778028  0.23196279  0.45634335     0.01300
H215        H  0.02782896  0.23686197  0.40374426     0.15100
H216        H  0.07044709  0.21579799  0.39472149     0.15100
Fe217      Fe  0.14943659  0.65777310  0.33477684     1.65800
Fe218      Fe  0.17618526  0.68523245  0.41907312     1.73200
Fe219      Fe  0.19314473  0.70065777  0.31908460     1.54400
O220        O  0.20145536  0.67174569  0.28105752    -0.79400
O221        O  0.17548135  0.72233186  0.41606476    -0.77700
O222        O  0.17340199  0.64366408  0.29185473    -0.81900
O223        O  0.13645191  0.68138518  0.29010491    -0.76800
O224        O  0.22442993  0.69437723  0.35225988    -0.78600
O225        O  0.13942750  0.68602450  0.42911241    -0.81300
C226        C  0.14445355  0.70009452  0.27203356     0.99500
C227        C  0.19203627  0.65145865  0.27332973     1.06900
O228        O  0.17294336  0.68124652  0.35759742    -1.10300
O229        O  0.17795681  0.64856243  0.42979015    -0.72700
O230        O  0.15980674  0.63083606  0.37584917    -0.76200
O231        O  0.16457364  0.70960920  0.28070075    -0.76900
C232        C  0.17096959  0.62998875  0.41040057     0.98400
O233        O  0.12199984  0.66907255  0.37383385    -0.74800
O234        O  0.21336466  0.68575069  0.41776471    -0.80000
C235        C  0.18144724  0.73777811  0.38866317     1.01000
C236        C  0.22928182  0.68988874  0.39024821     1.06900
O237        O  0.18778245  0.73231227  0.35176759    -0.75700
C238        C  0.12094395  0.67962300  0.40884315     1.05200
N239        N  0.06402439  0.76293534  0.98029872    -0.01200
C240        C  0.04201229  0.76058299  0.96289785     0.01400
C241        C  0.04060881  0.77390060  0.92642155    -0.21500
C242        C  0.06268640  0.78481070  0.92118473    -0.21700
C243        C  0.07663398  0.77770506  0.95469952     0.01300
H244        H  0.02541626  0.77508604  0.90539395     0.15100
H245        H  0.06812552  0.79616976  0.89527517     0.15100
N246        N  0.25013665  0.57226433  0.97844269    -0.01200
C247        C  0.24552975  0.55125792  0.95873615     0.01400
C248        C  0.25555324  0.55143166  0.91919984    -0.21500
C249        C  0.26673818  0.57337739  0.91437386    -0.21700
C250        C  0.26311114  0.58571094  0.95117474     0.01300
H251        H  0.25464809  0.53723632  0.89622567     0.15100
H252        H  0.27622822  0.57972413  0.88688778     0.15100
Fe253      Fe  0.84520792  0.65636129  0.84117692     1.65800
Fe254      Fe  0.81741458  0.68430718  0.92385840     1.73200
Fe255      Fe  0.80344325  0.70053860  0.82295555     1.54400
O256        O  0.83317888  0.70865967  0.78662525    -0.79400
O257        O  0.78038964  0.68512043  0.91980727    -0.77700
O258        O  0.86012531  0.67964896  0.79763072    -0.81900
O259        O  0.82178250  0.64311722  0.79663925    -0.76800
O260        O  0.80933010  0.73186339  0.85601978    -0.78600
O261        O  0.81471660  0.64782033  0.93448041    -0.81300
C262        C  0.80381409  0.65149855  0.77711635     0.99500
C263        C  0.85316123  0.69862128  0.77921188     1.06900
O264        O  0.82201021  0.68042593  0.86261457    -1.10300
O265        O  0.85387096  0.68456785  0.93609661    -0.72700
O266        O  0.87193908  0.66676373  0.88226646    -0.76200
O267        O  0.79495102  0.67203412  0.78431629    -0.76900
C268        C  0.87253275  0.67752920  0.91709426     0.98400
O269        O  0.83297113  0.62969493  0.88116449    -0.74800
O270        O  0.81891060  0.72130282  0.92134678    -0.80000
C271        C  0.76529253  0.68990556  0.89132232     1.01000
C272        C  0.81463221  0.73697647  0.89350983     1.06900
O273        O  0.77120370  0.69507288  0.85401083    -0.75700
C274        C  0.82135365  0.62914051  0.91526152     1.05200
N275        N  0.74225291  0.57292055  0.48418110    -0.01200
C276        C  0.74584671  0.55176754  0.46452542     0.01400
C277        C  0.73475929  0.55188882  0.42587983    -0.21500
C278        C  0.72394980  0.57401512  0.42163044    -0.21700
C279        C  0.72887327  0.58645974  0.45787758     0.01300
H280        H  0.73488462  0.53763265  0.40297364     0.15100
H281        H  0.71400131  0.58045917  0.39476326     0.15100
N282        N  0.92821951  0.76168534  0.48361277    -0.01200
C283        C  0.94928053  0.75843496  0.46325036     0.01400
C284        C  0.94903499  0.77041821  0.42532266    -0.21500
C285        C  0.92694393  0.78141735  0.42223591    -0.21700
C286        C  0.91461081  0.77571369  0.45841884     0.01300
H287        H  0.96317183  0.77072695  0.40206272     0.15100
H288        H  0.92043605  0.79199573  0.39612294     0.15100
C289        C  0.90603595  0.73766160  0.59725689     0.19300
C290        C  0.92069099  0.73854615  0.63292591    -0.09800
C291        C  0.91161545  0.73127899  0.67192711    -0.10700
C292        C  0.88783041  0.72313396  0.67544201     0.20900
C293        C  0.87323770  0.72222633  0.63974071    -0.12700
C294        C  0.88228875  0.72948088  0.60084014    -0.11000
C295        C  0.87813349  0.71559055  0.71530884     0.01800
C296        C  0.86793569  0.70847617  0.74637944    -0.31000
C297        C  0.91507481  0.74550594  0.55709919     0.03200
C298        C  0.92159116  0.75261058  0.52315468    -0.32700
H299        H  0.93905844  0.74490209  0.63060240     0.14200
H300        H  0.92309710  0.73205152  0.69925537     0.14100
H301        H  0.85483543  0.71594944  0.64200258     0.13900
H302        H  0.87074099  0.72877735  0.57357876     0.13000
C303        C  0.76478775  0.59605191  0.59772051     0.19300
C304        C  0.78926081  0.59818934  0.60741246    -0.09800
C305        C  0.79640353  0.60811319  0.64562576    -0.10700
C306        C  0.77913060  0.61595346  0.67442089     0.20900
C307        C  0.75465367  0.61368905  0.66483133    -0.12700
C308        C  0.74751002  0.60376584  0.62660816    -0.11000
C309        C  0.78659043  0.62713840  0.71296091     0.01800
C310        C  0.79371978  0.63754794  0.74364467    -0.31000
C311        C  0.75740326  0.58668374  0.55769857     0.03200
C312        C  0.75073014  0.57983110  0.52382562    -0.32700
H313        H  0.80279496  0.59241696  0.58529334     0.14200
H314        H  0.81538841  0.60990132  0.65252675     0.14100
H315        H  0.74112734  0.61981267  0.68666997     0.13900
H316        H  0.72853263  0.60233287  0.61941048     0.13000
C317        C  0.93770226  0.69902293  0.96138213     0.19300
C318        C  0.93870560  0.72178654  0.97987653    -0.09800
C319        C  0.96092660  0.73250357  0.98845353    -0.10700
C320        C  0.98230573  0.72051208  0.97867362     0.20900
C321        C  0.98131192  0.69745237  0.96125351    -0.12700
C322        C  0.95906686  0.68672392  0.95266344    -0.11000
C323        C  0.00494398  0.73307524  0.98144194     0.01800
C324        C  0.02289707  0.74506419  0.97722913    -0.31000
C325        C  0.91486412  0.68928425  0.94839403     0.03200
C326        C  0.89557110  0.68287890  0.93517859    -0.32700
H327        H  0.92232986  0.73157249  0.98641931     0.14200
H328        H  0.96143135  0.75048082  0.00128845     0.14100
H329        H  0.99769784  0.68814639  0.95292857     0.13900
H330        H  0.95854161  0.66921218  0.93803030     0.13000
C331        C  0.10975389  0.72477805  0.16824941     0.19300
C332        C  0.08675767  0.71671654  0.15698119    -0.09800
C333        C  0.07682753  0.72342128  0.11837983    -0.10700
C334        C  0.08987496  0.73816287  0.09081167     0.20900
C335        C  0.11286989  0.74616519  0.10209131    -0.12700
C336        C  0.12277694  0.73948096  0.14063132    -0.11000
C337        C  0.07970836  0.74549658  0.05125453     0.01800
C338        C  0.07210770  0.75294493  0.01827729    -0.31000
C339        C  0.12042375  0.71733642  0.20734286     0.03200
C340        C  0.13061344  0.71026146  0.23838137    -0.32700
H341        H  0.07657158  0.70520655  0.17791966     0.14200
H342        H  0.05902434  0.71713138  0.11005858     0.14100
H343        H  0.12313159  0.75757877  0.08109233     0.13900
H344        H  0.14062861  0.74569894  0.14881709     0.13000
C345        C  0.23055957  0.59573515  0.09364134     0.19300
C346        C  0.24439367  0.61405987  0.11170704    -0.09800
C347        C  0.23770942  0.62389890  0.15026537    -0.10700
C348        C  0.21714299  0.61550251  0.17113502     0.20900
C349        C  0.20340584  0.59705038  0.15321293    -0.12700
C350        C  0.21009836  0.58720014  0.11464324    -0.11000
C351        C  0.20950369  0.62663661  0.20973982     0.01800
C352        C  0.20225163  0.63717047  0.24027561    -0.31000
C353        C  0.23707184  0.58618890  0.05318534     0.03200
C354        C  0.24284095  0.57920176  0.01883768    -0.32700
H355        H  0.26019569  0.62091051  0.09578667     0.14200
H356        H  0.24840902  0.63825946  0.16353702     0.14100
H357        H  0.18737409  0.59048978  0.16878514     0.13900
H358        H  0.19918462  0.57311508  0.10101356     0.13000
C359        C  0.00991631  0.71953792  0.47293118     0.19300
C360        C  0.01159528  0.70131417  0.44293485    -0.09800
C361        C  0.03396766  0.69147671  0.43272689    -0.10700
C362        C  0.05488323  0.69979595  0.45238943     0.20900
C363        C  0.05314934  0.71757566  0.48321632    -0.12700
C364        C  0.03074643  0.72744192  0.49341171    -0.11000
C365        C  0.07815440  0.69124434  0.43896370     0.01800
C366        C  0.09763681  0.68522279  0.42591699    -0.31000
C367        C  0.98736505  0.73190050  0.47870152     0.03200
C368        C  0.96906745  0.74348164  0.47640754    -0.32700
H369        H  0.99570659  0.69526938  0.42641919     0.14200
H370        H  0.03502756  0.67787496  0.40866857     0.14100
H371        H  0.06917432  0.72429045  0.49849459     0.13900
H372        H  0.02978149  0.74174170  0.51622179     0.13000
C373        C  0.21281028  0.51940466  0.47348980     0.19300
C374        C  0.18888188  0.52099089  0.45997398    -0.09800
C375        C  0.17886070  0.54341293  0.45015526    -0.10700
C376        C  0.19273157  0.56438725  0.45368162     0.20900
C377        C  0.21649653  0.56281813  0.46794536    -0.12700
C378        C  0.22649859  0.54043399  0.47775490    -0.11000
C379        C  0.18321416  0.58734561  0.44049709     0.01800
C380        C  0.17674425  0.60676392  0.42771345    -0.31000
C381        C  0.22420358  0.49624975  0.47824890     0.03200
C382        C  0.23535067  0.47770742  0.47561572    -0.32700
H383        H  0.17820691  0.50486557  0.45587060     0.14200
H384        H  0.16053077  0.54432838  0.43887476     0.14100
H385        H  0.22748676  0.57884425  0.47051206     0.13900
H386        H  0.24511985  0.53946636  0.48748304     0.13000
C387        C  0.10824090  0.28102870  0.67377761     0.19300
C388        C  0.11994130  0.26401039  0.64886535    -0.09800
C389        C  0.11016890  0.25725713  0.61030208    -0.10700
C390        C  0.08861191  0.26748283  0.59625116     0.20900
C391        C  0.07671057  0.28427387  0.62138646    -0.12700
C392        C  0.08650468  0.29104509  0.66000772    -0.11000
C393        C  0.07904705  0.26086786  0.55586220     0.01800
C394        C  0.07206918  0.25446025  0.52185968    -0.31000
C395        C  0.11927012  0.28909517  0.71219434     0.03200
C396        C  0.12989789  0.29664846  0.74242054    -0.32700
H397        H  0.13680725  0.25621327  0.65896994     0.14200
H398        H  0.11955519  0.24425767  0.59123565     0.14100
H399        H  0.06002683  0.29231149  0.61095110     0.13900
H400        H  0.07732654  0.30430885  0.67881230     0.13000
C401        C  0.21696381  0.39102533  0.67137368     0.19300
C402        C  0.21827112  0.37681975  0.63533547    -0.09800
C403        C  0.22489746  0.38706856  0.59692647    -0.10700
C404        C  0.23023740  0.41165431  0.59411781     0.20900
C405        C  0.22894995  0.42590712  0.63013394    -0.12700
C406        C  0.22231043  0.41563530  0.66862927    -0.11000
C407        C  0.23746549  0.42196018  0.55442192     0.01800
C408        C  0.24428457  0.42930846  0.52075897    -0.31000
C409        C  0.20969116  0.38024738  0.71069630     0.03200
C410        C  0.20261730  0.36981668  0.74166801    -0.32700
H411        H  0.21413145  0.35779988  0.63691369     0.14200
H412        H  0.22589547  0.37580916  0.56942994     0.14100
H413        H  0.23310327  0.44491860  0.62847615     0.13900
H414        H  0.22131792  0.42685964  0.69615764     0.13000
C415        C  0.21069577  0.48857266  0.97561708     0.19300
C416        C  0.22416939  0.46804915  0.98547392    -0.09800
C417        C  0.21517442  0.44512274  0.97632166    -0.10700
C418        C  0.19265952  0.44253155  0.95712704     0.20900
C419        C  0.17890338  0.46301605  0.94833591    -0.12700
C420        C  0.18789741  0.48593945  0.95748963    -0.11000
C421        C  0.18443682  0.41908746  0.94391871     0.01800
C422        C  0.17846307  0.39962208  0.93074022    -0.31000
C423        C  0.22146072  0.51215586  0.97897547     0.03200
C424        C  0.23181472  0.53113219  0.97464197    -0.32700
H425        H  0.24196518  0.46979718  0.99887228     0.14200
H426        H  0.22608092  0.42947720  0.98306033     0.14100
H427        H  0.16155093  0.46131367  0.93327020     0.13900
H428        H  0.17743478  0.50162688  0.94908565     0.13000
C429        C  0.77976304  0.51792210  0.97467107     0.19300
C430        C  0.80413862  0.52292230  0.98151973    -0.09800
C431        C  0.81331198  0.54585903  0.97273271    -0.10700
C432        C  0.79815225  0.56381991  0.95693757     0.20900
C433        C  0.77369827  0.55892365  0.95090568    -0.12700
C434        C  0.76454305  0.53605037  0.95971114    -0.11000
C435        C  0.80773647  0.58688255  0.94481017     0.01800
C436        C  0.81469797  0.60616821  0.93233478    -0.31000
C437        C  0.77071376  0.49374570  0.97821943     0.03200
C438        C  0.76179526  0.47418297  0.97355844    -0.32700
H439        H  0.81614503  0.50895379  0.99247476     0.14200
H440        H  0.83227875  0.54941249  0.97728446     0.14100
H441        H  0.76183370  0.57261199  0.93846211     0.13900
H442        H  0.74574534  0.53229618  0.95367606     0.13000
C443        C  0.01206688  0.28620270  0.98100511     0.19300
C444        C  0.03209218  0.27117541  0.97661032    -0.09800
C445        C  0.05444561  0.28082268  0.96531494    -0.10700
C446        C  0.05697456  0.30557690  0.95820518     0.20900
C447        C  0.03711613  0.32071113  0.96370412    -0.12700
C448        C  0.01472479  0.31104633  0.97500141    -0.11000
C449        C  0.07961086  0.31508594  0.94321354     0.01800
C450        C  0.09875652  0.32163376  0.92925369    -0.31000
C451        C  0.98844904  0.27572830  0.98597048     0.03200
C452        C  0.96934050  0.26559919  0.98224083    -0.32700
H453        H  0.03024156  0.25190848  0.98047335     0.14200
H454        H  0.06959784  0.26889286  0.96100532     0.14100
H455        H  0.03877759  0.33985739  0.95815140     0.13900
H456        H  0.99933617  0.32283098  0.97763378     0.13000
C457        C  0.88349833  0.28267017  0.17657246     0.19300
C458        C  0.88778886  0.25833912  0.16827005    -0.09800
C459        C  0.89811311  0.25146159  0.13014835    -0.10700
C460        C  0.90422125  0.26886453  0.10003947     0.20900
C461        C  0.90017155  0.29320410  0.10856181    -0.12700
C462        C  0.88985874  0.30007537  0.14664615    -0.11000
C463        C  0.91378129  0.26171553  0.05990778     0.01800
C464        C  0.92077190  0.25555010  0.02576579    -0.31000
C465        C  0.87181307  0.28986528  0.21493392     0.03200
C466        C  0.86121247  0.29724714  0.24530369    -0.32700
H467        H  0.88289192  0.24467920  0.19100833     0.14200
H468        H  0.90105072  0.23258035  0.12394600     0.14100
H469        H  0.90470602  0.30684928  0.08556673     0.13900
H470        H  0.88657045  0.31893331  0.15254224     0.13000
C471        C  0.76340470  0.41127399  0.09571371     0.19300
C472        C  0.75124418  0.39117198  0.11186024    -0.09800
C473        C  0.75741838  0.38184006  0.15115391    -0.10700
C474        C  0.77578563  0.39254700  0.17464447     0.20900
C475        C  0.78778968  0.41280306  0.15869047    -0.12700
C476        C  0.78160663  0.42214660  0.11936550    -0.11000
C477        C  0.78318836  0.38192284  0.21388384     0.01800
C478        C  0.79039459  0.37169966  0.24486308    -0.31000
C479        C  0.75760580  0.42018597  0.05444259     0.03200
C480        C  0.75242552  0.42638103  0.01930728    -0.32700
H481        H  0.73720617  0.38253621  0.09384898     0.14200
H482        H  0.74811718  0.36607042  0.16293080     0.14100
H483        H  0.80214320  0.42114485  0.17635449     0.13900
H484        H  0.79120837  0.43763658  0.10720505     0.13000
C485        C  0.80301643  0.44578830  0.45830563     0.19300
C486        C  0.81597156  0.46699844  0.45070845    -0.09800
C487        C  0.80602163  0.48929349  0.46101022    -0.10700
C488        C  0.78308303  0.49051895  0.47903971     0.20900
C489        C  0.77044227  0.46926140  0.48778611    -0.12700
C490        C  0.78039177  0.44697435  0.47750562    -0.11000
C491        C  0.77127760  0.51343529  0.48313706     0.01800
C492        C  0.76016548  0.53191596  0.47929644    -0.31000
C493        C  0.81210095  0.42298771  0.44397756     0.03200
C494        C  0.81819778  0.40368335  0.43053771    -0.32700
H495        H  0.83340538  0.46635334  0.43566999     0.14200
H496        H  0.81582521  0.50559688  0.45348174     0.14100
H497        H  0.75254945  0.46995359  0.50109347     0.13900
H498        H  0.77012497  0.43072813  0.48332712     0.13000
C499        C  0.93770153  0.30808254  0.45765570     0.19300
C500        C  0.95897808  0.32099447  0.45031950    -0.09800
C501        C  0.98129302  0.31076266  0.46008270    -0.10700
C502        C  0.98249104  0.28757703  0.47735601     0.20900
C503        C  0.96117117  0.27497560  0.48581791    -0.12700
C504        C  0.93887742  0.28519736  0.47606528    -0.11000
C505        C  0.00538853  0.27557220  0.48136140     0.01800
C506        C  0.02369431  0.26408656  0.47796173    -0.31000
C507        C  0.91483516  0.31748202  0.44379784     0.03200
C508        C  0.89551324  0.32390666  0.43058247    -0.32700
H509        H  0.95836174  0.33863612  0.43590476     0.14200
H510        H  0.99761643  0.32058312  0.45280301     0.14100
H511        H  0.96180789  0.25692013  0.49857356     0.13900
H512        H  0.92260123  0.27495030  0.48169931     0.13000
C513        C  0.80282276  0.20287516  0.43393925     0.19300
C514        C  0.78357507  0.19815117  0.46112639    -0.09800
C515        C  0.77774029  0.17445671  0.47206083    -0.10700
C516        C  0.79114834  0.15535556  0.45590389     0.20900
C517        C  0.81064324  0.16010606  0.42927108    -0.12700
C518        C  0.81646947  0.18379411  0.41832196    -0.11000
C519        C  0.78382578  0.13087264  0.46364742     0.01800
C520        C  0.77751058  0.11012136  0.46474712    -0.31000
C521        C  0.80781291  0.22719565  0.42076712     0.03200
C522        C  0.81036732  0.24778985  0.40957044    -0.32700
H523        H  0.77280929  0.21274994  0.47323344     0.14200
H524        H  0.76248834  0.17101472  0.49231582     0.14100
H525        H  0.82099388  0.14547332  0.41622659     0.13900
H526        H  0.83130076  0.18719310  0.39711968     0.13000
C527        C  0.69515976  0.31343159  0.44001882     0.19300
C528        C  0.67581117  0.32902938  0.43319076    -0.09800
C529        C  0.65247067  0.32196342  0.44426828    -0.10700
C530        C  0.64834187  0.29928207  0.46226407     0.20900
C531        C  0.66779032  0.28400313  0.47026667    -0.12700
C532        C  0.69111789  0.29107256  0.45923074    -0.11000
C533        C  0.62404191  0.29088627  0.46856104     0.01800
C534        C  0.60341885  0.28406720  0.46838247    -0.31000
C535        C  0.71891473  0.31950634  0.42513193     0.03200
C536        C  0.73916310  0.32220253  0.41225449    -0.32700
H537        H  0.67866390  0.34632351  0.41828115     0.14200
H538        H  0.63756490  0.33386995  0.43760014     0.14100
H539        H  0.66484558  0.26636191  0.48382354     0.13900
H540        H  0.70591491  0.27881887  0.46458418     0.13000
C541        C  0.84542899  0.21171605  0.95430498     0.19300
C542        C  0.82593953  0.22733518  0.95906640    -0.09800
C543        C  0.80279477  0.21992600  0.94783531    -0.10700
C544        C  0.79895442  0.19686095  0.93166427     0.20900
C545        C  0.81838707  0.18108658  0.92737189    -0.12700
C546        C  0.84157605  0.18851038  0.93862866    -0.11000
C547        C  0.77518220  0.18999519  0.91817024     0.01800
C548        C  0.75476007  0.18669395  0.90675082    -0.31000
C549        C  0.86951961  0.22014208  0.96233368     0.03200
C550        C  0.88995504  0.22740113  0.96416020    -0.32700
H551        H  0.82870154  0.24538983  0.97067721     0.14200
H552        H  0.78794314  0.23233219  0.95110963     0.14100
H553        H  0.81568496  0.16325703  0.91472835     0.13900
H554        H  0.85654204  0.17634905  0.93434761     0.13000
C555        C  0.71121620  0.34898810  0.95151231     0.19300
C556        C  0.72722286  0.32961924  0.95157035    -0.09800
C557        C  0.71915784  0.30669983  0.94055641    -0.10700
C558        C  0.69507461  0.30305603  0.92932618     0.20900
C559        C  0.67896534  0.32233969  0.92995408    -0.12700
C560        C  0.68703639  0.34527614  0.94099405    -0.11000
C561        C  0.68732565  0.27964662  0.91591986     0.01800
C562        C  0.68324991  0.25942093  0.90458847    -0.31000
C563        C  0.71999506  0.37297722  0.95822537     0.03200
C564        C  0.72704394  0.39345403  0.95826378    -0.32700
H565        H  0.74600927  0.33233926  0.95914050     0.14200
H566        H  0.73178649  0.29191305  0.94003962     0.14100
H567        H  0.66033702  0.31973918  0.92120090     0.13900
H568        H  0.67457802  0.36020487  0.94035404     0.13000
C569        C  0.73172995  0.09528773  0.59573936     0.19300
C570        C  0.74871826  0.09880657  0.62755491    -0.09800
C571        C  0.74166738  0.10833100  0.66615159    -0.10700
C572        C  0.71756781  0.11438948  0.67319671     0.20900
C573        C  0.70057302  0.11074545  0.64145229    -0.12700
C574        C  0.70761967  0.10122991  0.60288244    -0.11000
C575        C  0.71030217  0.12516360  0.71222347     0.01800
C576        C  0.70312403  0.13540043  0.74304857    -0.31000
C577        C  0.73917139  0.08624630  0.55548806     0.03200
C578        C  0.74617008  0.07948584  0.52174016    -0.32700
H579        H  0.76743823  0.09439769  0.62239055     0.14200
H580        H  0.75501655  0.11118236  0.69028919     0.14100
H581        H  0.68191218  0.11548485  0.64637491     0.13900
H582        H  0.69432451  0.09871678  0.57853902     0.13000
C583        C  0.58822099  0.23778733  0.59762584     0.19300
C584        C  0.59393287  0.21355608  0.60432981    -0.09800
C585        C  0.60419678  0.20622294  0.64228904    -0.10700
C586        C  0.60882912  0.22305192  0.67382030     0.20900
C587        C  0.60295115  0.24725175  0.66723188    -0.12700
C588        C  0.59268423  0.25458464  0.62926967    -0.11000
C589        C  0.62033119  0.21553544  0.71220490     0.01800
C590        C  0.63091296  0.20823937  0.74272447    -0.31000
C591        C  0.57867460  0.24561494  0.55783730     0.03200
C592        C  0.57183396  0.25306473  0.52433309    -0.32700
H593        H  0.59070941  0.20040601  0.58008847     0.14200
H594        H  0.60875974  0.18747559  0.64687500     0.14100
H595        H  0.60653463  0.26046457  0.69121361     0.13900
H596        H  0.58848065  0.27339423  0.62441574     0.13000
C597        C  0.69559756  0.70023292  0.92558753     0.19300
C598        C  0.68919954  0.70072090  0.96804913    -0.09800
C599        C  0.66620315  0.70831247  0.98005056    -0.10700
C600        C  0.64954234  0.71550740  0.94962394     0.20900
C601        C  0.65589873  0.71474517  0.90720323    -0.12700
C602        C  0.67882427  0.70717125  0.89523849    -0.11000
C603        C  0.62586366  0.72369407  0.96114192     0.01800
C604        C  0.60533738  0.73041573  0.96454876    -0.31000
C605        C  0.71971250  0.69399992  0.91314420     0.03200
C606        C  0.74028838  0.69077077  0.90256603    -0.32700
H607        H  0.70206321  0.69553974  0.99184209     0.14200
H608        H  0.66150590  0.70875712  0.01292641     0.14100
H609        H  0.64317033  0.72020208  0.88336104     0.13900
H610        H  0.68356963  0.70702893  0.86236334     0.13000
C611        C  0.69219786  0.06185073  0.95897192     0.19300
C612        C  0.67688310  0.04202832  0.96438133    -0.09800
C613        C  0.68642432  0.01945270  0.97448752    -0.10700
C614        C  0.71130415  0.01663920  0.97937969     0.20900
C615        C  0.72649595  0.03662842  0.97513489    -0.12700
C616        C  0.71698008  0.05914527  0.96502539    -0.11000
C617        C  0.72166613  0.99301109  0.98325057     0.01800
C618        C  0.73201107  0.97414243  0.97903929    -0.31000
C619        C  0.68289889  0.08460621  0.94464786     0.03200
C620        C  0.67671022  0.10382240  0.93074119    -0.32700
H621        H  0.65770407  0.04386564  0.95957397     0.14200
H622        H  0.67452059  0.00408079  0.97704600     0.14100
H623        H  0.74578325  0.03463659  0.97816918     0.13900
H624        H  0.72902302  0.07428847  0.96070285     0.13000
C625        C  0.80457226  0.80602216  0.92992745     0.19300
C626        C  0.81010860  0.82577720  0.90439065    -0.09800
C627        C  0.80223041  0.84872948  0.91538834    -0.10700
C628        C  0.78874244  0.85207570  0.95194987     0.20900
C629        C  0.78347718  0.83238357  0.97784549    -0.12700
C630        C  0.79138204  0.80939447  0.96684169    -0.11000
C631        C  0.77934831  0.87555235  0.96114458     0.01800
C632        C  0.77167054  0.89576224  0.96292281    -0.31000
C633        C  0.81103688  0.78214846  0.91694532     0.03200
C634        C  0.81428672  0.76174448  0.90576436    -0.32700
H635        H  0.82009690  0.82337352  0.87561845     0.14200
H636        H  0.80626042  0.86380677  0.89496630     0.14100
H637        H  0.77292676  0.83472350  0.00601710     0.13900
H638        H  0.78681754  0.79420415  0.98664929     0.13000
C639        C  0.84561198  0.79847302  0.45674421     0.19300
C640        C  0.82628008  0.79194224  0.48254855    -0.09800
C641        C  0.80290737  0.79915460  0.47218206    -0.10700
C642        C  0.79878062  0.81290240  0.43599002     0.20900
C643        C  0.81818268  0.81982390  0.41073576    -0.12700
C644        C  0.84150339  0.81264367  0.42109346    -0.11000
C645        C  0.77457261  0.81844471  0.42318687     0.01800
C646        C  0.75407126  0.82106746  0.41175676    -0.31000
C647        C  0.86951778  0.78968833  0.46493076     0.03200
C648        C  0.89005211  0.78276402  0.46580697    -0.32700
H649        H  0.82919551  0.78089621  0.51005916     0.14200
H650        H  0.78801601  0.79355428  0.49181884     0.14100
H651        H  0.81522475  0.83029082  0.38255722     0.13900
H652        H  0.85628669  0.81770013  0.40077086     0.13000
C653        C  0.69164432  0.70235733  0.43455093     0.19300
C654        C  0.69430307  0.68533090  0.40281240    -0.09800
C655        C  0.70179885  0.66203292  0.41253318    -0.10700
C656        C  0.70674273  0.65557291  0.45406010     0.20900
C657        C  0.70387104  0.67250199  0.48598174    -0.12700
C658        C  0.69635227  0.69588609  0.47622371    -0.11000
C659        C  0.71504531  0.63160409  0.46301855     0.01800
C660        C  0.72176309  0.61103074  0.46443796    -0.31000
C661        C  0.68550730  0.72674004  0.42376660     0.03200
C662        C  0.68236610  0.74733392  0.41322224    -0.32700
H663        H  0.69091083  0.69016139  0.37047449     0.14200
H664        H  0.70398204  0.64910421  0.38759015     0.14100
H665        H  0.70766310  0.66771886  0.51819602     0.13900
H666        H  0.69453640  0.70896886  0.50099578     0.13000
C667        C  0.73175073  0.91053124  0.09980348     0.19300
C668        C  0.71999966  0.92511898  0.12901261    -0.09800
C669        C  0.71329129  0.91574931  0.16813175    -0.10700
C670        C  0.71831600  0.89174302  0.17834668     0.20900
C671        C  0.73037521  0.87728252  0.14933273    -0.12700
C672        C  0.73707087  0.88663777  0.11026585    -0.11000
C673        C  0.71007458  0.88148829  0.21749939     0.01800
C674        C  0.70227622  0.87143842  0.24831632    -0.31000
C675        C  0.73798276  0.91979503  0.05886376     0.03200
C676        C  0.74348360  0.92650191  0.02409930    -0.32700
H677        H  0.71577887  0.94361213  0.12137392     0.14200
H678        H  0.70389128  0.92711341  0.19013700     0.14100
H679        H  0.73428618  0.85867902  0.15667136     0.13900
H680        H  0.74614578  0.87514910  0.08802729     0.13000
C681        C  0.58899361  0.76947715  0.10249944     0.19300
C682        C  0.60188378  0.75273633  0.12649085    -0.09800
C683        C  0.61140781  0.75929649  0.16537960    -0.10700
C684        C  0.60809749  0.78263950  0.18059081     0.20900
C685        C  0.59488143  0.79926244  0.15689721    -0.12700
C686        C  0.58535727  0.79270262  0.11801469    -0.11000
C687        C  0.61943010  0.79001337  0.21913721     0.01800
C688        C  0.63009222  0.79738014  0.24944724    -0.31000
C689        C  0.58024854  0.76304252  0.06147541     0.03200
C690        C  0.57378514  0.75731647  0.02680470    -0.32700
H691        H  0.60488596  0.73474299  0.11485143     0.14200
H692        H  0.62170053  0.74630909  0.18321462     0.14100
H693        H  0.59230494  0.81740719  0.16813516     0.13900
H694        H  0.57548635  0.80584074  0.09979003     0.13000
C695        C  0.71076086  0.99188160  0.47339643     0.19300
C696        C  0.69396163  0.98916873  0.44106258    -0.09800
C697        C  0.68379398  0.96663222  0.43294291    -0.10700
C698        C  0.69036273  0.94660407  0.45705657     0.20900
C699        C  0.70670592  0.94941679  0.49007975    -0.12700
C700        C  0.71689338  0.97197946  0.49819795    -0.11000
C701        C  0.68167113  0.92299767  0.44593688     0.01800
C702        C  0.67566406  0.90324373  0.43426293    -0.31000
C703        C  0.72355507  0.01434095  0.47777976     0.03200
C704        C  0.73575815  0.03227492  0.47517399    -0.32700
H705        H  0.68930370  0.00431093  0.42126280     0.14200
H706        H  0.67134362  0.96469531  0.40712735     0.14100
H707        H  0.71208810  0.93405843  0.50876670     0.13900
H708        H  0.73008875  0.97373550  0.52290275     0.13000
C709        C  0.20933801  0.85174655  0.45507360     0.19300
C710        C  0.18568387  0.84826106  0.44109093    -0.09800
C711        C  0.17805463  0.82553403  0.42771626    -0.10700
C712        C  0.19405365  0.80612259  0.42814435     0.20900
C713        C  0.21760046  0.80953576  0.44267347    -0.12700
C714        C  0.22522672  0.83225039  0.45602327    -0.11000
C715        C  0.18669470  0.78279245  0.41302589     0.01800
C716        C  0.18266990  0.76261193  0.40098200    -0.31000
C717        C  0.21778352  0.87567422  0.46476479     0.03200
C718        C  0.22445683  0.89632373  0.46705287    -0.32700
H719        H  0.17328354  0.86322379  0.43971609     0.14200
H720        H  0.15983419  0.82319132  0.41651232     0.14100
H721        H  0.23017884  0.79470305  0.44310750     0.13900
H722        H  0.24362067  0.83470597  0.46626376     0.13000
C723        C  0.55650985  0.80419816  0.46206212     0.19300
C724        C  0.53487525  0.81320942  0.44607853    -0.09800
C725        C  0.51299597  0.80235704  0.45687492    -0.10700
C726        C  0.51250858  0.78240020  0.48379738     0.20900
C727        C  0.53410795  0.77364261  0.50050268    -0.12700
C728        C  0.55603401  0.78453434  0.48971768    -0.11000
C729        C  0.49022330  0.76944436  0.48996172     0.01800
C730        C  0.47193739  0.75775425  0.48750078    -0.31000
C731        C  0.57915056  0.81428734  0.44820070     0.03200
C732        C  0.59813784  0.82173898  0.43492356    -0.32700
H733        H  0.53496050  0.82825757  0.42446276     0.14200
H734        H  0.49650582  0.80908647  0.44319248     0.14100
H735        H  0.53406944  0.75800939  0.52081807     0.13900
H736        H  0.57262876  0.77726185  0.50210393     0.13000
C737        C  0.34569047  0.71224849  0.45180574     0.19300
C738        C  0.34061988  0.68950604  0.43521115    -0.09800
C739        C  0.31714768  0.68352303  0.42329290    -0.10700
C740        C  0.29857057  0.70025729  0.42781038     0.20900
C741        C  0.30361684  0.72298585  0.44452721    -0.12700
C742        C  0.32710081  0.72897168  0.45644773    -0.11000
C743        C  0.27445724  0.69438784  0.41455249     0.01800
C744        C  0.25401438  0.69094749  0.40326492    -0.31000
C745        C  0.37016090  0.71872567  0.46182080     0.03200
C746        C  0.39121462  0.72351729  0.46594395    -0.32700
H747        H  0.35486335  0.67649368  0.43105437     0.14200
H748        H  0.31353275  0.66595193  0.41024661     0.14100
H749        H  0.28944318  0.73614126  0.44800765     0.13900
H750        H  0.33079920  0.74668672  0.46882829     0.13000
C751        C  0.14727165  0.79637233  0.94936701     0.19300
C752        C  0.16574105  0.77954354  0.95432610    -0.09800
C753        C  0.18944748  0.78579484  0.94437316    -0.10700
C754        C  0.19484024  0.80889825  0.92932694     0.20900
C755        C  0.17640331  0.82580524  0.92469643    -0.12700
C756        C  0.15267976  0.81954886  0.93465896    -0.11000
C757        C  0.21918311  0.81483650  0.91759207     0.01800
C758        C  0.23987589  0.81793181  0.90747894    -0.31000
C759        C  0.12263913  0.78946134  0.95678466     0.03200
C760        C  0.10171745  0.78380828  0.95887423    -0.32700
H761        H  0.16177092  0.76151046  0.96527414     0.14200
H762        H  0.20352554  0.77252691  0.94791218     0.14100
H763        H  0.18031152  0.84367980  0.91292635     0.13900
H764        H  0.13851908  0.83264871  0.93030288     0.13000
C765        C  0.30405837  0.70094630  0.92994023     0.19300
C766        C  0.29254062  0.69599233  0.96808434    -0.09800
C767        C  0.28478151  0.67260137  0.97743019    -0.10700
C768        C  0.28849561  0.65406639  0.94864616     0.20900
C769        C  0.30040230  0.65896309  0.91087238    -0.12700
C770        C  0.30813885  0.68231422  0.90153713    -0.11000
C771        C  0.27916990  0.63025534  0.95642804     0.01800
C772        C  0.27143936  0.60997599  0.95766035    -0.31000
C773        C  0.31015197  0.72533898  0.91868672     0.03200
C774        C  0.31316405  0.74603557  0.90843086    -0.32700
H775        H  0.28911370  0.71028640  0.99017088     0.14200
H776        H  0.27550935  0.66907713  0.00663573     0.14100
H777        H  0.30328096  0.64481144  0.88826605     0.13900
H778        H  0.31683809  0.68592798  0.87182934     0.13000
C779        C  0.26475892  0.91421727  0.60273826     0.19300
C780        C  0.24893941  0.89894762  0.62437915    -0.09800
C781        C  0.25538841  0.88947228  0.66340274    -0.10700
C782        C  0.27769220  0.89521674  0.68109103     0.20900
C783        C  0.29332115  0.91089792  0.65988712    -0.12700
C784        C  0.28686393  0.92038673  0.62082165    -0.11000
C785        C  0.28525807  0.88361355  0.71929080     0.01800
C786        C  0.29259809  0.87239614  0.74904765    -0.31000
C787        C  0.25855283  0.92273710  0.56143254     0.03200
C788        C  0.25254110  0.92875938  0.52662623    -0.32700
H789        H  0.23182201  0.89400804  0.61072456     0.14200
H790        H  0.24322009  0.87724956  0.67932433     0.14100
H791        H  0.31068529  0.91535072  0.67309857     0.13900
H792        H  0.29927033  0.93214351  0.60440901     0.13000
C793        C  0.40441269  0.76710714  0.60017895     0.19300
C794        C  0.41893738  0.77903576  0.62934975    -0.09800
C795        C  0.40931512  0.78645650  0.66772342    -0.10700
C796        C  0.38510180  0.78195729  0.67725485     0.20900
C797        C  0.37063496  0.76989451  0.64816375    -0.12700
C798        C  0.38024472  0.76248748  0.60982845    -0.11000
C799        C  0.37478768  0.79044098  0.71602670     0.01800
C800        C  0.36481568  0.79825064  0.74673398    -0.31000
C801        C  0.41423407  0.75935412  0.56058570     0.03200
C802        C  0.42176754  0.75187602  0.52762239    -0.32700
H803        H  0.43766006  0.78266863  0.62238614     0.14200
H804        H  0.42069136  0.79583544  0.68978971     0.14100
H805        H  0.35187230  0.76636845  0.65498443     0.13900
H806        H  0.36881641  0.75323215  0.58766967     0.13000
C807        C  0.43823183  0.80871548  0.96375783     0.19300
C808        C  0.45900105  0.82289261  0.95996496    -0.09800
C809        C  0.48156912  0.81318413  0.96958383    -0.10700
C810        C  0.48351417  0.78926296  0.98316447     0.20900
C811        C  0.46266649  0.77532868  0.98806640    -0.12700
C812        C  0.44012609  0.78502528  0.97846402    -0.11000
C813        C  0.50684720  0.77810794  0.98677757     0.01800
C814        C  0.52562200  0.76750216  0.98266446    -0.31000
C815        C  0.41523778  0.81773955  0.94984053     0.03200
C816        C  0.39592053  0.82381927  0.93614627    -0.32700
H817        H  0.45783395  0.84117350  0.94837567     0.14200
H818        H  0.49754698  0.82405327  0.96502030     0.14100
H819        H  0.46390643  0.75671570  0.99788130     0.13900
H820        H  0.42425594  0.77380881  0.98127414     0.13000
C821        C  0.55690165  0.19683544  0.95961023     0.19300
C822        C  0.55523664  0.22099802  0.97137794    -0.09800
C823        C  0.53286293  0.23105355  0.98071152    -0.10700
C824        C  0.51196844  0.21700846  0.97845373     0.20900
C825        C  0.51372036  0.19257685  0.96834753    -0.12700
C826        C  0.53614011  0.18250027  0.95899170    -0.11000
C827        C  0.48877114  0.22847203  0.98045389     0.01800
C828        C  0.47028429  0.23933523  0.97485073    -0.31000
C829        C  0.57958768  0.18752360  0.94504461     0.03200
C830        C  0.59880618  0.18157433  0.93091024    -0.32700
H831        H  0.57111901  0.23230217  0.97179965     0.14200
H832        H  0.53174778  0.25002189  0.98790295     0.14100
H833        H  0.49768039  0.18159223  0.96594420     0.13900
H834        H  0.53715517  0.16382351  0.94978813     0.13000
C835        C  0.34609916  0.29185392  0.94891183     0.19300
C836        C  0.34192341  0.31453665  0.93107411    -0.09800
C837        C  0.31850896  0.32165235  0.92092374    -0.10700
C838        C  0.29912908  0.30610663  0.92851065     0.20900
C839        C  0.30325094  0.28365594  0.94726378    -0.12700
C840        C  0.32665942  0.27653810  0.95739065    -0.11000
C841        C  0.27518451  0.31250388  0.91525813     0.01800
C842        C  0.25478018  0.31583520  0.90376623    -0.31000
C843        C  0.37040511  0.28365714  0.95527473     0.03200
C844        C  0.39102579  0.27696740  0.95596373    -0.32700
H845        H  0.35681924  0.32647086  0.92406461     0.14200
H846        H  0.31558911  0.33901229  0.90634489     0.14100
H847        H  0.28842957  0.27143844  0.95318338     0.13900
H848        H  0.32964623  0.25889679  0.97085993     0.13000
C849        C  0.29977042  0.94385007  0.95959989     0.19300
C850        C  0.28308008  0.94510210  0.99245532    -0.09800
C851        C  0.27233041  0.96708874  0.00265935    -0.10700
C852        C  0.27827366  0.98796632  0.98014393     0.20900
C853        C  0.29533367  0.98675446  0.94793094    -0.12700
C854        C  0.30603216  0.96481860  0.93771620    -0.11000
C855        C  0.26519342  0.01005952  0.98644857     0.01800
C856        C  0.25332566  0.02817114  0.98392712    -0.31000
C857        C  0.30936730  0.92094654  0.94659788     0.03200
C858        C  0.31624269  0.90171440  0.93387699    -0.32700
H859        H  0.27793612  0.92900645  0.00944829     0.14200
H860        H  0.25892691  0.96766459  0.02722361     0.14100
H861        H  0.29983843  0.00265499  0.92985365     0.13900
H862        H  0.31874142  0.96411305  0.91206495     0.13000
C863        C  0.19073547  0.19965179  0.92878123     0.19300
C864        C  0.17284754  0.18283485  0.93901497    -0.09800
C865        C  0.17923119  0.15954599  0.95158315    -0.10700
C866        C  0.20351992  0.15299279  0.95411302     0.20900
C867        C  0.22136660  0.16991744  0.94437410    -0.12700
C868        C  0.21499745  0.19315438  0.93181890    -0.11000
C869        C  0.21015112  0.12848662  0.96331825     0.01800
C870        C  0.21576966  0.10759445  0.96600910    -0.31000
C871        C  0.18449358  0.22353503  0.91484116     0.03200
C872        C  0.18149553  0.24402680  0.90340842    -0.32700
H873        H  0.15403360  0.18762345  0.93681720     0.14200
H874        H  0.16524944  0.14655138  0.95860672     0.14100
H875        H  0.24018216  0.16502716  0.94576588     0.13900
H876        H  0.22900025  0.20598300  0.92400910     0.13000
C877        C  0.14730616  0.21099398  0.44778726     0.19300
C878        C  0.16668555  0.21574318  0.47450477    -0.09800
C879        C  0.19004165  0.20919094  0.46281550    -0.10700
C880        C  0.19417060  0.19785656  0.42436689     0.20900
C881        C  0.17473893  0.19281511  0.39793948    -0.12700
C882        C  0.15140761  0.19934604  0.40962639    -0.11000
C883        C  0.21842487  0.19257861  0.41121740     0.01800
C884        C  0.23909268  0.18997150  0.40053662    -0.31000
C885        C  0.12332908  0.21887749  0.45817301     0.03200
C886        C  0.10267794  0.22528385  0.46137778    -0.32700
H887        H  0.16380247  0.22481707  0.50397693     0.14200
H888        H  0.20492342  0.21331780  0.48343706     0.14100
H889        H  0.17766156  0.18420364  0.36805371     0.13900
H890        H  0.13659948  0.19565988  0.38858314     0.13000
C891        C  0.30310764  0.30733315  0.42878405     0.19300
C892        C  0.29257268  0.31172863  0.46790066    -0.09800
C893        C  0.28544486  0.33504047  0.47865941    -0.10700
C894        C  0.28881922  0.35404037  0.45031513     0.20900
C895        C  0.29963939  0.34965662  0.41148492    -0.12700
C896        C  0.30674059  0.32640507  0.40075008    -0.11000
C897        C  0.28053748  0.37794204  0.45979716     0.01800
C898        C  0.27399982  0.39856756  0.46190603    -0.31000
C899        C  0.30885583  0.28313778  0.41632066     0.03200
C900        C  0.31184575  0.26269876  0.40495333    -0.32700
H901        H  0.28950558  0.29709484  0.48974220     0.14200
H902        H  0.27701905  0.33817122  0.50869292     0.14100
H903        H  0.30225749  0.36417558  0.38922616     0.13900
H904        H  0.31468526  0.32323635  0.37032931     0.13000
C905        C  0.26042919  0.09498143  0.09842873     0.19300
C906        C  0.28497333  0.09909198  0.10529559    -0.09800
C907        C  0.29273150  0.10986359  0.14245044    -0.10700
C908        C  0.27601889  0.11660625  0.17305260     0.20900
C909        C  0.25147691  0.11237412  0.16630239    -0.12700
C910        C  0.24371510  0.10159803  0.12912685    -0.11000
C911        C  0.28407064  0.12846887  0.21067284     0.01800
C912        C  0.29166849  0.13919493  0.24072324    -0.31000
C913        C  0.25233933  0.08472822  0.05942597     0.03200
C914        C  0.24501045  0.07714318  0.02641014    -0.32700
H915        H  0.29807557  0.09418436  0.08179016     0.14200
H916        H  0.31174504  0.11312777  0.14714835     0.14100
H917        H  0.23835294  0.11758797  0.18956480     0.13900
H918        H  0.22467585  0.09863708  0.12415848     0.13000
C919        C  0.40629867  0.23755290  0.09333943     0.19300
C920        C  0.39088229  0.25345703  0.11402939    -0.09800
C921        C  0.38132622  0.24736705  0.15320395    -0.10700
C922        C  0.38713975  0.22533705  0.17201255     0.20900
C923        C  0.40278458  0.20954252  0.15153178    -0.12700
C924        C  0.41235054  0.21563897  0.11233346    -0.11000
C925        C  0.37595789  0.21833064  0.21100628     0.01800
C926        C  0.36527613  0.21137658  0.24170945    -0.31000
C927        C  0.41534507  0.24356007  0.05227526     0.03200
C928        C  0.42202611  0.24930343  0.01768155    -0.32700
H929        H  0.38601384  0.27042407  0.09964238     0.14200
H930        H  0.36912518  0.25966274  0.16851042     0.14100
H931        H  0.40728903  0.19237931  0.16555948     0.13900
H932        H  0.42420051  0.20316119  0.09664309     0.13000
C933        C  0.43744494  0.20171555  0.45593040     0.19300
C934        C  0.45866479  0.19072466  0.44224823    -0.09800
C935        C  0.48105204  0.20078270  0.45209677    -0.10700
C936        C  0.48243035  0.22189373  0.47576275     0.20900
C937        C  0.46122889  0.23255674  0.49035972    -0.12700
C938        C  0.43882476  0.22248235  0.48052787    -0.11000
C939        C  0.50527306  0.23399256  0.48065288     0.01800
C940        C  0.52383568  0.24524414  0.47805296    -0.31000
C941        C  0.41434320  0.19265002  0.44245153     0.03200
C942        C  0.39500288  0.18622399  0.42925455    -0.32700
H943        H  0.45789093  0.17477656  0.42299595     0.14200
H944        H  0.49725119  0.19253224  0.44009281     0.14100
H945        H  0.46197588  0.24905402  0.50816422     0.13900
H946        H  0.42257762  0.23126563  0.49109880     0.13000
C947        C  0.28521103  0.01799510  0.47796271     0.19300
C948        C  0.30605872  0.01997216  0.45347346    -0.09800
C949        C  0.31545785  0.04263902  0.44321580    -0.10700
C950        C  0.30405994  0.06354320  0.45728368     0.20900
C951        C  0.28370434  0.06155419  0.48299216    -0.12700
C952        C  0.27429554  0.03888095  0.49323432    -0.11000
C953        C  0.31209152  0.08690793  0.44282233     0.01800
C954        C  0.31754316  0.10645091  0.42893158    -0.31000
C955        C  0.27343758  0.99492876  0.48272834     0.03200
C956        C  0.26230414  0.97630802  0.47982392    -0.32700
H957        H  0.31452663  0.00402905  0.44098400     0.14200
H958        H  0.33112241  0.04386782  0.42317746     0.14100
H959        H  0.27463000  0.07753622  0.49395080     0.13900
H960        H  0.25801527  0.03768267  0.51172897     0.13000
loop_ 
_geom_bond_atom_site_label_1 
_geom_bond_atom_site_label_2 
_geom_bond_distance 
_geom_bond_site_symmetry_2 
_ccdc_geom_bond_type 
Fe1          O17   2.074       .  S
Fe1           O7   2.072       .  S
Fe1          O14   2.074       .  S
Fe1           O6   2.070       .  S
Fe1          O12   1.986       .  S
Fe2           O5   2.069       .  S
Fe2           O9   2.069       .  S
Fe2          O13   2.071       .  S
Fe2          O18   2.065       .  S
Fe2          O12   1.987       .  S
Fe3          O21   2.071       .  S
Fe3           O8   2.070       .  S
Fe3          O15   2.072       .  S
Fe3           O4   2.070       .  S
Fe3          O12   1.983       .  S
O4           C11   1.268       .  A
O5           C19   1.268       .  A
O6           C11   1.267       .  A
O7           C10   1.269       .  A
O8           C20   1.268       .  A
O9           C22   1.266       .  A
C10          O15   1.269       .  A
C10         C912   1.441       .  S
C11         C926   1.440       .  S
O13          C16   1.269       .  A
O14          C16   1.269       .  A
C16         C942   1.442       .  S
O17          C22   1.268       .  A
O18          C20   1.267       .  A
C19          O21   1.269       .  A
C19         C884   1.440       .  S
C20         C900   1.438       .  S
C22         C954   1.443       .  S
N23          C27   1.353       .  A
N23          C24   1.354       .  A
N23         C914   1.409   1_556  S
C24         C856   1.444       .  S
C24          C25   1.381       .  A
C25          C26   1.378       .  A
C25          H28   1.082       .  S
C26          C27   1.380       .  A
C26          H29   1.082       .  S
C27         C870   1.443       .  S
N30          C34   1.352       .  A
N30          C31   1.352       .  A
N30         C928   1.407   1_556  S
C31         C828   1.443       .  S
C31          C32   1.381       .  A
C32          C33   1.379       .  A
C32          H35   1.082       .  S
C33          C34   1.381       .  A
C33          H36   1.082       .  S
C34         C844   1.443       .  S
Fe37         O53   2.069       .  S
Fe37         O43   2.078       .  S
Fe37         O50   2.078       .  S
Fe37         O42   2.064       .  S
Fe37         O48   1.986       .  S
Fe38         O41   2.065       .  S
Fe38         O45   2.072       .  S
Fe38         O49   2.065       .  S
Fe38         O54   2.069       .  S
Fe38         O48   1.986       .  S
Fe39         O57   2.072       .  S
Fe39         O44   2.065       .  S
Fe39         O51   2.067       .  S
Fe39         O40   2.071       .  S
Fe39         O48   1.981       .  S
O40          C47   1.269       .  A
O41          C55   1.268       .  A
O42          C47   1.267       .  A
O43          C46   1.270       .  A
O44          C56   1.267       .  A
O45          C58   1.267       .  A
C46          O51   1.268       .  A
C46         C800   1.442       .  S
C47         C786   1.437       .  S
O49          C52   1.267       .  A
O50          C52   1.269       .  A
C52         C858   1.441       .  S
O53          C58   1.267       .  A
O54          C56   1.267       .  A
C55          O57   1.269       .  A
C55         C774   1.437       .  S
C56         C758   1.437       .  S
C58         C816   1.441       .  S
N59          C63   1.354       .  A
N59          C60   1.354       .  A
N59         C802   1.409       .  S
C60         C730   1.444       .  S
C60          C61   1.381       .  A
C61          C62   1.378       .  A
C61          H64   1.082       .  S
C62          C63   1.380       .  A
C62          H65   1.082       .  S
C63         C746   1.444       .  S
N66          C70   1.354       .  A
N66          C67   1.354       .  A
N66         C788   1.407       .  S
C67         C956   1.446       .  S
C67          C68   1.381       .  A
C68          C69   1.378       .  A
C68          H71   1.082       .  S
C69          C70   1.380       .  A
C69          H72   1.082       .  S
C70         C718   1.446       .  S
Fe73         O89   2.072       .  S
Fe73         O79   2.076       .  S
Fe73         O86   2.076       .  S
Fe73         O78   2.069       .  S
Fe73         O84   1.985       .  S
Fe74         O77   2.064       .  S
Fe74         O81   2.067       .  S
Fe74         O85   2.066       .  S
Fe74         O90   2.063       .  S
Fe74         O84   1.988       .  S
Fe75         O93   2.070       .  S
Fe75         O80   2.068       .  S
Fe75         O87   2.070       .  S
Fe75         O76   2.072       .  S
Fe75         O84   1.981       .  S
O76          C83   1.268       .  A
O77          C91   1.267       .  A
O78          C83   1.268       .  A
O79          C82   1.270       .  A
O80          C92   1.268       .  A
O81          C94   1.267       .  A
C82          O87   1.268       .  A
C82         C674   1.442       .  S
C83         C688   1.440       .  S
O85          C88   1.267       .  A
O86          C88   1.269       .  A
C88         C732   1.442       .  S
O89          C94   1.268       .  A
O90          C92   1.266       .  A
C91          O93   1.269       .  A
C91         C646   1.436       .  S
C92         C662   1.435       .  S
C94         C702   1.440       .  S
N95          C99   1.352       .  A
N95          C96   1.353       .  A
N95         C676   1.409   1_556  S
C96         C618   1.441       .  S
C96          C97   1.381       .  A
C97          C98   1.377       .  A
C97         H100   1.082       .  S
C98          C99   1.380       .  A
C98         H101   1.082       .  S
C99         C632   1.440       .  S
N102        C106   1.354       .  A
N102        C103   1.354       .  A
N102        C690   1.409   1_556  S
C103        C814   1.444       .  S
C103        C104   1.381       .  A
C104        C105   1.377       .  A
C104        H107   1.082       .  S
C105        C106   1.380       .  A
C105        H108   1.082       .  S
C106        C604   1.443       .  S
Fe109       O125   2.074       .  S
Fe109       O115   2.069       .  S
Fe109       O122   2.070       .  S
Fe109       O114   2.072       .  S
Fe109       O120   1.985       .  S
Fe110       O113   2.063       .  S
Fe110       O117   2.064       .  S
Fe110       O121   2.064       .  S
Fe110       O126   2.065       .  S
Fe110       O120   1.987       .  S
Fe111       O129   2.065       .  S
Fe111       O116   2.070       .  S
Fe111       O123   2.072       .  S
Fe111       O112   2.066       .  S
Fe111       O120   1.982       .  S
O112        C119   1.267       .  A
O113        C127   1.267       .  A
O114        C119   1.268       .  A
O115        C118   1.268       .  A
O116        C128   1.268       .  A
O117        C130   1.266       .  A
C118        O123   1.269       .  A
C118        C590   1.440       .  S
C119        C576   1.440       .  S
O121        C124   1.267       .  A
O122        C124   1.268       .  A
C124        C620   1.437       .  S
O125        C130   1.268       .  A
O126        C128   1.267       .  A
C127        O129   1.268       .  A
C127        C562   1.433       .  S
C128        C548   1.438       .  S
C130        C830   1.439       .  S
N131        C135   1.353       .  A
N131        C132   1.354       .  A
N131        C592   1.408       .  S
C132        C940   1.444       .  S
C132        C133   1.381       .  A
C133        C134   1.378       .  A
C133        H136   1.082       .  S
C134        C135   1.380       .  A
C134        H137   1.082       .  S
C135        C534   1.444       .  S
N138        C142   1.352       .  A
N138        C139   1.353       .  A
N138        C578   1.408       .  S
C139        C704   1.443       .  S
C139        C140   1.381       .  A
C140        C141   1.378       .  A
C140        H143   1.082       .  S
C141        C142   1.380       .  A
C141        H144   1.082       .  S
C142        C520   1.442       .  S
Fe145       O161   2.074       .  S
Fe145       O151   2.069       .  S
Fe145       O158   2.073       .  S
Fe145       O150   2.071       .  S
Fe145       O156   1.986       .  S
Fe146       O149   2.066       .  S
Fe146       O153   2.066       .  S
Fe146       O157   2.066       .  S
Fe146       O162   2.064       .  S
Fe146       O156   1.987       .  S
Fe147       O165   2.068       .  S
Fe147       O152   2.074       .  S
Fe147       O159   2.075       .  S
Fe147       O148   2.069       .  S
Fe147       O156   1.982       .  S
O148        C155   1.268       .  A
O149        C163   1.267       .  A
O150        C155   1.268       .  A
O151        C154   1.269       .  A
O152        C164   1.269       .  A
O153        C166   1.266       .  A
C154        O159   1.270       .  A
C154        C466   1.441       .  S
C155        C478   1.440       .  S
O157        C160   1.267       .  A
O158        C160   1.269       .  A
C160        C494   1.439       .  S
O161        C166   1.268       .  A
O162        C164   1.267       .  A
C163        O165   1.268       .  A
C163        C522   1.437       .  S
C164        C536   1.438       .  S
C166        C508   1.441       .  S
N167        C171   1.354       .  A
N167        C168   1.354       .  A
N167        C464   1.409   1_556  S
C168        C452   1.443       .  S
C168        C169   1.381       .  A
C169        C170   1.377       .  A
C169        H172   1.082       .  S
C170        C171   1.380       .  A
C170        H173   1.082       .  S
C171        C550   1.442       .  S
N174        C178   1.351       .  A
N174        C175   1.351       .  A
N174        C480   1.408   1_556  S
C175        C438   1.438       .  S
C175        C176   1.381       .  A
C176        C177   1.377       .  A
C176        H179   1.082       .  S
C177        C178   1.380       .  A
C177        H180   1.082       .  S
C178        C564   1.438       .  S
Fe181       O197   2.077       .  S
Fe181       O187   2.071       .  S
Fe181       O194   2.072       .  S
Fe181       O186   2.074       .  S
Fe181       O192   1.985       .  S
Fe182       O185   2.067       .  S
Fe182       O189   2.068       .  S
Fe182       O193   2.068       .  S
Fe182       O198   2.064       .  S
Fe182       O192   1.986       .  S
Fe183       O201   2.070       .  S
Fe183       O188   2.073       .  S
Fe183       O195   2.074       .  S
Fe183       O184   2.070       .  S
Fe183       O192   1.981       .  S
O184        C191   1.269       .  A
O185        C199   1.267       .  A
O186        C191   1.269       .  A
O187        C190   1.268       .  A
O188        C200   1.269       .  A
O189        C202   1.267       .  A
C190        O195   1.269       .  A
C190        C410   1.442       .  S
C191        C396   1.441       .  S
O193        C196   1.267       .  A
O194        C196   1.268       .  A
C196        C450   1.441       .  S
O197        C202   1.269       .  A
O198        C200   1.267       .  A
C199        O201   1.269       .  A
C199        C842   1.438       .  S
C200        C872   1.438       .  S
C202        C422   1.442       .  S
N203        C207   1.353       .  A
N203        C204   1.354       .  A
N203        C408   1.409       .  S
C204        C382   1.443       .  S
C204        C205   1.381       .  A
C205        C206   1.377       .  A
C205        H208   1.082       .  S
C206        C207   1.380       .  A
C206        H209   1.082       .  S
C207        C898   1.442       .  S
N210        C214   1.354       .  A
N210        C211   1.354       .  A
N210        C394   1.409       .  S
C211        C506   1.444       .  S
C211        C212   1.381       .  A
C212        C213   1.378       .  A
C212        H215   1.082       .  S
C213        C214   1.380       .  A
C213        H216   1.082       .  S
C214        C886   1.444       .  S
Fe217       O233   2.073       .  S
Fe217       O223   2.068       .  S
Fe217       O230   2.071       .  S
Fe217       O222   2.072       .  S
Fe217       O228   1.988       .  S
Fe218       O221   2.067       .  S
Fe218       O225   2.071       .  S
Fe218       O229   2.070       .  S
Fe218       O234   2.069       .  S
Fe218       O228   1.987       .  S
Fe219       O237   2.075       .  S
Fe219       O224   2.068       .  S
Fe219       O231   2.069       .  S
Fe219       O220   2.074       .  S
Fe219       O228   1.981       .  S
O220        C227   1.269       .  A
O221        C235   1.268       .  A
O222        C227   1.268       .  A
O223        C226   1.268       .  A
O224        C236   1.268       .  A
O225        C238   1.267       .  A
C226        O231   1.269       .  A
C226        C340   1.438       .  S
C227        C352   1.443       .  S
O229        C232   1.268       .  A
O230        C232   1.268       .  A
C232        C380   1.441       .  S
O233        C238   1.268       .  A
O234        C236   1.268       .  A
C235        O237   1.269       .  A
C235        C716   1.440       .  S
C236        C744   1.439       .  S
C238        C366   1.442       .  S
N239        C243   1.352       .  A
N239        C240   1.352       .  A
N239        C338   1.407   1_556  S
C240        C324   1.442       .  S
C240        C241   1.381       .  A
C241        C242   1.379       .  A
C241        H244   1.082       .  S
C242        C243   1.380       .  A
C242        H245   1.082       .  S
C243        C760   1.442       .  S
N246        C250   1.353       .  A
N246        C247   1.355       .  A
N246        C354   1.409   1_556  S
C247        C424   1.444       .  S
C247        C248   1.381       .  A
C248        C249   1.377       .  A
C248        H251   1.082       .  S
C249        C250   1.380       .  A
C249        H252   1.082       .  S
C250        C772   1.443       .  S
Fe253       O269   2.068       .  S
Fe253       O259   2.068       .  S
Fe253       O266   2.068       .  S
Fe253       O258   2.070       .  S
Fe253       O264   1.986       .  S
Fe254       O257   2.065       .  S
Fe254       O261   2.062       .  S
Fe254       O265   2.066       .  S
Fe254       O270   2.062       .  S
Fe254       O264   1.987       .  S
Fe255       O273   2.071       .  S
Fe255       O260   2.068       .  S
Fe255       O267   2.069       .  S
Fe255       O256   2.069       .  S
Fe255       O264   1.980       .  S
O256        C263   1.268       .  A
O257        C271   1.267       .  A
O258        C263   1.268       .  A
O259        C262   1.268       .  A
O260        C272   1.268       .  A
O261        C274   1.266       .  A
C262        O267   1.268       .  A
C262        C310   1.439       .  S
C263        C296   1.439       .  S
O265        C268   1.267       .  A
O266        C268   1.267       .  A
C268        C326   1.438       .  S
O269        C274   1.267       .  A
O270        C272   1.266       .  A
C271        O273   1.269       .  A
C271        C606   1.438       .  S
C272        C634   1.435       .  S
C274        C436   1.435       .  S
N275        C279   1.351       .  A
N275        C276   1.352       .  A
N275        C312   1.407       .  S
C276        C492   1.442       .  S
C276        C277   1.381       .  A
C277        C278   1.378       .  A
C277        H280   1.082       .  S
C278        C279   1.380       .  A
C278        H281   1.082       .  S
C279        C660   1.441       .  S
N282        C286   1.352       .  A
N282        C283   1.353       .  A
N282        C298   1.408       .  S
C283        C368   1.443       .  S
C283        C284   1.381       .  A
C284        C285   1.378       .  A
C284        H287   1.082       .  S
C285        C286   1.380       .  A
C285        H288   1.082       .  S
C286        C648   1.442       .  S
C289        C297   1.444       .  S
C289        C290   1.403       .  A
C289        C294   1.401       .  A
C290        C291   1.402       .  A
C290        H299   1.083       .  S
C291        C292   1.402       .  A
C291        H300   1.084       .  S
C292        C295   1.444       .  S
C292        C293   1.402       .  A
C293        C294   1.399       .  A
C293        H301   1.083       .  S
C294        H302   1.084       .  S
C295        C296   1.208       .  T
C297        C298   1.208       .  T
C303        C311   1.443       .  S
C303        C304   1.402       .  A
C303        C308   1.402       .  A
C304        C305   1.400       .  A
C304        H313   1.083       .  S
C305        C306   1.402       .  A
C305        H314   1.084       .  S
C306        C309   1.444       .  S
C306        C307   1.402       .  A
C307        C308   1.401       .  A
C307        H315   1.083       .  S
C308        H316   1.084       .  S
C309        C310   1.208       .  T
C311        C312   1.208       .  T
C317        C325   1.442       .  S
C317        C318   1.402       .  A
C317        C322   1.402       .  A
C318        C319   1.399       .  A
C318        H327   1.084       .  S
C319        C320   1.401       .  A
C319        H328   1.083   1_556  S
C320        C323   1.442   1_655  S
C320        C321   1.402       .  A
C321        C322   1.401       .  A
C321        H329   1.083       .  S
C322        H330   1.083       .  S
C323        C324   1.207       .  T
C325        C326   1.207       .  T
C331        C339   1.443       .  S
C331        C332   1.403       .  A
C331        C336   1.401       .  A
C332        C333   1.402       .  A
C332        H341   1.083       .  S
C333        C334   1.402       .  A
C333        H342   1.083       .  S
C334        C337   1.443       .  S
C334        C335   1.402       .  A
C335        C336   1.399       .  A
C335        H343   1.083       .  S
C336        H344   1.084       .  S
C337        C338   1.208       .  T
C339        C340   1.208       .  T
C345        C353   1.447       .  S
C345        C346   1.403       .  A
C345        C350   1.402       .  A
C346        C347   1.402       .  A
C346        H355   1.083       .  S
C347        C348   1.402       .  A
C347        H356   1.084       .  S
C348        C351   1.448       .  S
C348        C349   1.403       .  A
C349        C350   1.402       .  A
C349        H357   1.083       .  S
C350        H358   1.084       .  S
C351        C352   1.211       .  T
C353        C354   1.210       .  T
C359        C367   1.445   1_455  S
C359        C360   1.402       .  A
C359        C364   1.402       .  A
C360        C361   1.400       .  A
C360        H369   1.084   1_455  S
C361        C362   1.402       .  A
C361        H370   1.083       .  S
C362        C365   1.446       .  S
C362        C363   1.403       .  A
C363        C364   1.402       .  A
C363        H371   1.083       .  S
C364        H372   1.083       .  S
C365        C366   1.210       .  T
C367        C368   1.208       .  T
C373        C381   1.445       .  S
C373        C374   1.403       .  A
C373        C378   1.402       .  A
C374        C375   1.402       .  A
C374        H383   1.083       .  S
C375        C376   1.403       .  A
C375        H384   1.083       .  S
C376        C379   1.445       .  S
C376        C377   1.402       .  A
C377        C378   1.400       .  A
C377        H385   1.084       .  S
C378        H386   1.083       .  S
C379        C380   1.209       .  T
C381        C382   1.209       .  T
C387        C395   1.446       .  S
C387        C388   1.402       .  A
C387        C392   1.403       .  A
C388        C389   1.400       .  A
C388        H397   1.084       .  S
C389        C390   1.402       .  A
C389        H398   1.083       .  S
C390        C393   1.446       .  S
C390        C391   1.403       .  A
C391        C392   1.403       .  A
C391        H399   1.084       .  S
C392        H400   1.083       .  S
C393        C394   1.209       .  T
C395        C396   1.210       .  T
C401        C409   1.447       .  S
C401        C402   1.402       .  A
C401        C406   1.403       .  A
C402        C403   1.400       .  A
C402        H411   1.084       .  S
C403        C404   1.402       .  A
C403        H412   1.083       .  S
C404        C407   1.447       .  S
C404        C405   1.403       .  A
C405        C406   1.403       .  A
C405        H413   1.083       .  S
C406        H414   1.083       .  S
C407        C408   1.210       .  T
C409        C410   1.210       .  T
C415        C423   1.446       .  S
C415        C416   1.403       .  A
C415        C420   1.403       .  A
C416        C417   1.402       .  A
C416        H425   1.083       .  S
C417        C418   1.403       .  A
C417        H426   1.083       .  S
C418        C421   1.446       .  S
C418        C419   1.402       .  A
C419        C420   1.401       .  A
C419        H427   1.083       .  S
C420        H428   1.083       .  S
C421        C422   1.210       .  T
C423        C424   1.209       .  T
C429        C437   1.439       .  S
C429        C430   1.401       .  A
C429        C434   1.401       .  A
C430        C431   1.401       .  A
C430        H439   1.083       .  S
C431        C432   1.402       .  A
C431        H440   1.083       .  S
C432        C435   1.440       .  S
C432        C433   1.401       .  A
C433        C434   1.397       .  A
C433        H441   1.084       .  S
C434        H442   1.084       .  S
C435        C436   1.206       .  T
C437        C438   1.205       .  T
C443        C451   1.445   1_455  S
C443        C444   1.402       .  A
C443        C448   1.402       .  A
C444        C445   1.400       .  A
C444        H453   1.083       .  S
C445        C446   1.402       .  A
C445        H454   1.084       .  S
C446        C449   1.446       .  S
C446        C447   1.403       .  A
C447        C448   1.402       .  A
C447        H455   1.083       .  S
C448        H456   1.083   1_455  S
C449        C450   1.209       .  T
C451        C452   1.208       .  T
C457        C465   1.446       .  S
C457        C458   1.402       .  A
C457        C462   1.403       .  A
C458        C459   1.402       .  A
C458        H467   1.084       .  S
C459        C460   1.403       .  A
C459        H468   1.083       .  S
C460        C463   1.447       .  S
C460        C461   1.402       .  A
C461        C462   1.401       .  A
C461        H469   1.084       .  S
C462        H470   1.083       .  S
C463        C464   1.210       .  T
C465        C466   1.210       .  T
C471        C479   1.444       .  S
C471        C472   1.402       .  A
C471        C476   1.402       .  A
C472        C473   1.400       .  A
C472        H481   1.083       .  S
C473        C474   1.402       .  A
C473        H482   1.084       .  S
C474        C477   1.445       .  S
C474        C475   1.403       .  A
C475        C476   1.402       .  A
C475        H483   1.083       .  S
C476        H484   1.084       .  S
C477        C478   1.209       .  T
C479        C480   1.209       .  T
C485        C493   1.444       .  S
C485        C486   1.402       .  A
C485        C490   1.402       .  A
C486        C487   1.401       .  A
C486        H495   1.083       .  S
C487        C488   1.402       .  A
C487        H496   1.084       .  S
C488        C491   1.443       .  S
C488        C489   1.402       .  A
C489        C490   1.400       .  A
C489        H497   1.083       .  S
C490        H498   1.084       .  S
C491        C492   1.207       .  T
C493        C494   1.208       .  T
C499        C507   1.446       .  S
C499        C500   1.402       .  A
C499        C504   1.402       .  A
C500        C501   1.402       .  A
C500        H509   1.083       .  S
C501        C502   1.403       .  A
C501        H510   1.083       .  S
C502        C505   1.446   1_655  S
C502        C503   1.402       .  A
C503        C504   1.401       .  A
C503        H511   1.083       .  S
C504        H512   1.084       .  S
C505        C506   1.209       .  T
C507        C508   1.210       .  T
C513        C521   1.442       .  S
C513        C514   1.403       .  A
C513        C518   1.401       .  A
C514        C515   1.400       .  A
C514        H523   1.084       .  S
C515        C516   1.401       .  A
C515        H524   1.083       .  S
C516        C519   1.441       .  S
C516        C517   1.403       .  A
C517        C518   1.400       .  A
C517        H525   1.084       .  S
C518        H526   1.083       .  S
C519        C520   1.207       .  T
C521        C522   1.207       .  T
C527        C535   1.443       .  S
C527        C528   1.401       .  A
C527        C532   1.403       .  A
C528        C529   1.401       .  A
C528        H537   1.083       .  S
C529        C530   1.403       .  A
C529        H538   1.084       .  S
C530        C533   1.443       .  S
C530        C531   1.401       .  A
C531        C532   1.400       .  A
C531        H539   1.083       .  S
C532        H540   1.084       .  S
C533        C534   1.208       .  T
C535        C536   1.208       .  T
C541        C549   1.443       .  S
C541        C542   1.400       .  A
C541        C546   1.403       .  A
C542        C543   1.399       .  A
C542        H551   1.083       .  S
C543        C544   1.402       .  A
C543        H552   1.084       .  S
C544        C547   1.443       .  S
C544        C545   1.402       .  A
C545        C546   1.401       .  A
C545        H553   1.083       .  S
C546        H554   1.083       .  S
C547        C548   1.208       .  T
C549        C550   1.207       .  T
C555        C563   1.438       .  S
C555        C556   1.400       .  A
C555        C560   1.402       .  A
C556        C557   1.398       .  A
C556        H565   1.083       .  S
C557        C558   1.402       .  A
C557        H566   1.084       .  S
C558        C561   1.439       .  S
C558        C559   1.400       .  A
C559        C560   1.399       .  A
C559        H567   1.083       .  S
C560        H568   1.084       .  S
C561        C562   1.205       .  T
C563        C564   1.204       .  T
C569        C577   1.445       .  S
C569        C570   1.403       .  A
C569        C574   1.401       .  A
C570        C571   1.401       .  A
C570        H579   1.084       .  S
C571        C572   1.402       .  A
C571        H580   1.083       .  S
C572        C575   1.445       .  S
C572        C573   1.403       .  A
C573        C574   1.400       .  A
C573        H581   1.084       .  S
C574        H582   1.083       .  S
C575        C576   1.209       .  T
C577        C578   1.209       .  T
C583        C591   1.444       .  S
C583        C584   1.402       .  A
C583        C588   1.402       .  A
C584        C585   1.401       .  A
C584        H593   1.083       .  S
C585        C586   1.403       .  A
C585        H594   1.084       .  S
C586        C589   1.445       .  S
C586        C587   1.402       .  A
C587        C588   1.401       .  A
C587        H595   1.083       .  S
C588        H596   1.084       .  S
C589        C590   1.209       .  T
C591        C592   1.209       .  T
C597        C605   1.443       .  S
C597        C598   1.404       .  A
C597        C602   1.400       .  A
C598        C599   1.402       .  A
C598        H607   1.083       .  S
C599        C600   1.402       .  A
C599        H608   1.083   1_556  S
C600        C603   1.443       .  S
C600        C601   1.402       .  A
C601        C602   1.398       .  A
C601        H609   1.084       .  S
C602        H610   1.084       .  S
C603        C604   1.208       .  T
C605        C606   1.208       .  T
C611        C619   1.442       .  S
C611        C612   1.402       .  A
C611        C616   1.401       .  A
C612        C613   1.402       .  A
C612        H621   1.083       .  S
C613        C614   1.402       .  A
C613        H622   1.083       .  S
C614        C617   1.442   1_545  S
C614        C615   1.401       .  A
C615        C616   1.398       .  A
C615        H623   1.084       .  S
C616        H624   1.084       .  S
C617        C618   1.207       .  T
C619        C620   1.207       .  T
C625        C633   1.440       .  S
C625        C626   1.400       .  A
C625        C630   1.403       .  A
C626        C627   1.398       .  A
C626        H635   1.083       .  S
C627        C628   1.402       .  A
C627        H636   1.084       .  S
C628        C631   1.440       .  S
C628        C629   1.401       .  A
C629        C630   1.400       .  A
C629        H637   1.083   1_556  S
C630        H638   1.083       .  S
C631        C632   1.206       .  T
C633        C634   1.206       .  T
C639        C647   1.442       .  S
C639        C640   1.401       .  A
C639        C644   1.402       .  A
C640        C641   1.401       .  A
C640        H649   1.083       .  S
C641        C642   1.403       .  A
C641        H650   1.084       .  S
C642        C645   1.442       .  S
C642        C643   1.400       .  A
C643        C644   1.398       .  A
C643        H651   1.083       .  S
C644        H652   1.084       .  S
C645        C646   1.207       .  T
C647        C648   1.207       .  T
C653        C661   1.440       .  S
C653        C654   1.400       .  A
C653        C658   1.403       .  A
C654        C655   1.397       .  A
C654        H663   1.084       .  S
C655        C656   1.401       .  A
C655        H664   1.084       .  S
C656        C659   1.440       .  S
C656        C657   1.402       .  A
C657        C658   1.402       .  A
C657        H665   1.083       .  S
C658        H666   1.083       .  S
C659        C660   1.206       .  T
C661        C662   1.206       .  T
C667        C675   1.446       .  S
C667        C668   1.403       .  A
C667        C672   1.402       .  A
C668        C669   1.403       .  A
C668        H677   1.083       .  S
C669        C670   1.403       .  A
C669        H678   1.084       .  S
C670        C673   1.447       .  S
C670        C671   1.403       .  A
C671        C672   1.401       .  A
C671        H679   1.083       .  S
C672        H680   1.084       .  S
C673        C674   1.210       .  T
C675        C676   1.210       .  T
C681        C689   1.445       .  S
C681        C682   1.403       .  A
C681        C686   1.402       .  A
C682        C683   1.401       .  A
C682        H691   1.083       .  S
C683        C684   1.402       .  A
C683        H692   1.084       .  S
C684        C687   1.445       .  S
C684        C685   1.403       .  A
C685        C686   1.401       .  A
C685        H693   1.083       .  S
C686        H694   1.084       .  S
C687        C688   1.209       .  T
C689        C690   1.209       .  T
C695        C703   1.444   1_565  S
C695        C696   1.402       .  A
C695        C700   1.402       .  A
C696        C697   1.400       .  A
C696        H705   1.084   1_565  S
C697        C698   1.402       .  A
C697        H706   1.083       .  S
C698        C701   1.445       .  S
C698        C699   1.403       .  A
C699        C700   1.402       .  A
C699        H707   1.083       .  S
C700        H708   1.083       .  S
C701        C702   1.209       .  T
C703        C704   1.208       .  T
C709        C717   1.446       .  S
C709        C710   1.403       .  A
C709        C714   1.402       .  A
C710        C711   1.402       .  A
C710        H719   1.084       .  S
C711        C712   1.402       .  A
C711        H720   1.083       .  S
C712        C715   1.446       .  S
C712        C713   1.403       .  A
C713        C714   1.401       .  A
C713        H721   1.084       .  S
C714        H722   1.083       .  S
C715        C716   1.209       .  T
C717        C718   1.209       .  T
C723        C731   1.446       .  S
C723        C724   1.401       .  A
C723        C728   1.404       .  A
C724        C725   1.400       .  A
C724        H733   1.083       .  S
C725        C726   1.402       .  A
C725        H734   1.084       .  S
C726        C729   1.446       .  S
C726        C727   1.403       .  A
C727        C728   1.403       .  A
C727        H735   1.083       .  S
C728        H736   1.083       .  S
C729        C730   1.209       .  T
C731        C732   1.210       .  T
C737        C745   1.444       .  S
C737        C738   1.403       .  A
C737        C742   1.402       .  A
C738        C739   1.400       .  A
C738        H747   1.083       .  S
C739        C740   1.401       .  A
C739        H748   1.083       .  S
C740        C743   1.444       .  S
C740        C741   1.403       .  A
C741        C742   1.401       .  A
C741        H749   1.084       .  S
C742        H750   1.083       .  S
C743        C744   1.209       .  T
C745        C746   1.208       .  T
C751        C759   1.442       .  S
C751        C752   1.401       .  A
C751        C756   1.403       .  A
C752        C753   1.399       .  A
C752        H761   1.083       .  S
C753        C754   1.402       .  A
C753        H762   1.083       .  S
C754        C757   1.442       .  S
C754        C755   1.401       .  A
C755        C756   1.400       .  A
C755        H763   1.083       .  S
C756        H764   1.083       .  S
C757        C758   1.207       .  T
C759        C760   1.207       .  T
C765        C773   1.442       .  S
C765        C766   1.403       .  A
C765        C770   1.400       .  A
C766        C767   1.401       .  A
C766        H775   1.083       .  S
C767        C768   1.401       .  A
C767        H776   1.083   1_556  S
C768        C771   1.442       .  S
C768        C769   1.402       .  A
C769        C770   1.399       .  A
C769        H777   1.084       .  S
C770        H778   1.084       .  S
C771        C772   1.207       .  T
C773        C774   1.207       .  T
C779        C787   1.443       .  S
C779        C780   1.402       .  A
C779        C784   1.402       .  A
C780        C781   1.399       .  A
C780        H789   1.083       .  S
C781        C782   1.401       .  A
C781        H790   1.084       .  S
C782        C785   1.442       .  S
C782        C783   1.403       .  A
C783        C784   1.401       .  A
C783        H791   1.083       .  S
C784        H792   1.084       .  S
C785        C786   1.207       .  T
C787        C788   1.208       .  T
C793        C801   1.447       .  S
C793        C794   1.403       .  A
C793        C798   1.402       .  A
C794        C795   1.403       .  A
C794        H803   1.084       .  S
C795        C796   1.403       .  A
C795        H804   1.083       .  S
C796        C799   1.447       .  S
C796        C797   1.403       .  A
C797        C798   1.401       .  A
C797        H805   1.084       .  S
C798        H806   1.083       .  S
C799        C800   1.210       .  T
C801        C802   1.210       .  T
C807        C815   1.445       .  S
C807        C808   1.403       .  A
C807        C812   1.402       .  A
C808        C809   1.402       .  A
C808        H817   1.083       .  S
C809        C810   1.403       .  A
C809        H818   1.083       .  S
C810        C813   1.445       .  S
C810        C811   1.402       .  A
C811        C812   1.400       .  A
C811        H819   1.083       .  S
C812        H820   1.084       .  S
C813        C814   1.209       .  T
C815        C816   1.209       .  T
C821        C829   1.444       .  S
C821        C822   1.401       .  A
C821        C826   1.402       .  A
C822        C823   1.399       .  A
C822        H831   1.084       .  S
C823        C824   1.401       .  A
C823        H832   1.083       .  S
C824        C827   1.443       .  S
C824        C825   1.403       .  A
C825        C826   1.402       .  A
C825        H833   1.083       .  S
C826        H834   1.083       .  S
C827        C828   1.207       .  T
C829        C830   1.208       .  T
C835        C843   1.443       .  S
C835        C836   1.403       .  A
C835        C840   1.401       .  A
C836        C837   1.400       .  A
C836        H845   1.083       .  S
C837        C838   1.401       .  A
C837        H846   1.083       .  S
C838        C841   1.443       .  S
C838        C839   1.403       .  A
C839        C840   1.400       .  A
C839        H847   1.084       .  S
C840        H848   1.083       .  S
C841        C842   1.208       .  T
C843        C844   1.207       .  T
C849        C857   1.446       .  S
C849        C850   1.404       .  A
C849        C854   1.401       .  A
C850        C851   1.403   1_556  A
C850        H859   1.083   1_556  S
C851        C852   1.403   1_554  A
C851        H860   1.083       .  S
C852        C855   1.445   1_565  S
C852        C853   1.402       .  A
C853        C854   1.400       .  A
C853        H861   1.083   1_565  S
C854        H862   1.084       .  S
C855        C856   1.209       .  T
C857        C858   1.210       .  T
C863        C871   1.443       .  S
C863        C864   1.402       .  A
C863        C868   1.402       .  A
C864        C865   1.402       .  A
C864        H873   1.083       .  S
C865        C866   1.403       .  A
C865        H874   1.084       .  S
C866        C869   1.443       .  S
C866        C867   1.401       .  A
C867        C868   1.399       .  A
C867        H875   1.083       .  S
C868        H876   1.084       .  S
C869        C870   1.207       .  T
C871        C872   1.208       .  T
C877        C885   1.445       .  S
C877        C878   1.401       .  A
C877        C882   1.403       .  A
C878        C879   1.402       .  A
C878        H887   1.083       .  S
C879        C880   1.403       .  A
C879        H888   1.084       .  S
C880        C883   1.445       .  S
C880        C881   1.401       .  A
C881        C882   1.400       .  A
C881        H889   1.083       .  S
C882        H890   1.084       .  S
C883        C884   1.209       .  T
C885        C886   1.208       .  T
C891        C899   1.443       .  S
C891        C892   1.404       .  A
C891        C896   1.400       .  A
C892        C893   1.402       .  A
C892        H901   1.083       .  S
C893        C894   1.401       .  A
C893        H902   1.083       .  S
C894        C897   1.442       .  S
C894        C895   1.402       .  A
C895        C896   1.398       .  A
C895        H903   1.084       .  S
C896        H904   1.083       .  S
C897        C898   1.207       .  T
C899        C900   1.208       .  T
C905        C913   1.445       .  S
C905        C906   1.402       .  A
C905        C910   1.403       .  A
C906        C907   1.401       .  A
C906        H915   1.083       .  S
C907        C908   1.403       .  A
C907        H916   1.084       .  S
C908        C911   1.445       .  S
C908        C909   1.402       .  A
C909        C910   1.402       .  A
C909        H917   1.083       .  S
C910        H918   1.084       .  S
C911        C912   1.209       .  T
C913        C914   1.209       .  T
C919        C927   1.443       .  S
C919        C920   1.402       .  A
C919        C924   1.402       .  A
C920        C921   1.400       .  A
C920        H929   1.083       .  S
C921        C922   1.402       .  A
C921        H930   1.083       .  S
C922        C925   1.444       .  S
C922        C923   1.403       .  A
C923        C924   1.401       .  A
C923        H931   1.083       .  S
C924        H932   1.083       .  S
C925        C926   1.209       .  T
C927        C928   1.208       .  T
C933        C941   1.446       .  S
C933        C934   1.402       .  A
C933        C938   1.403       .  A
C934        C935   1.401       .  A
C934        H943   1.083       .  S
C935        C936   1.402       .  A
C935        H944   1.084       .  S
C936        C939   1.446       .  S
C936        C937   1.403       .  A
C937        C938   1.402       .  A
C937        H945   1.083       .  S
C938        H946   1.083       .  S
C939        C940   1.209       .  T
C941        C942   1.210       .  T
C947        C955   1.447   1_545  S
C947        C948   1.403       .  A
C947        C952   1.403       .  A
C948        C949   1.402       .  A
C948        H957   1.084       .  S
C949        C950   1.402       .  A
C949        H958   1.083       .  S
C950        C953   1.448       .  S
C950        C951   1.403       .  A
C951        C952   1.402       .  A
C951        H959   1.083       .  S
C952        H960   1.083       .  S
C953        C954   1.211       .  T
C955        C956   1.210       .  T
