geometry optimzed in LAMMPS
_audit_creation_date              2020-11-30 
_audit_creation_method            'lammps2cif' 
_symmetry_space_group_name_H-M    'P1' 
_symmetry_Int_Tables_number       1 
_symmetry_cell_setting            triclinic 
loop_ 
_symmetry_equiv_pos_as_xyz 
  x,y,z 
_cell_length_a                    40.26203663516217 
_cell_length_b                    40.71792670921844 
_cell_length_c                    30.840567476109907 
_cell_angle_alpha                 89.88376822205372 
_cell_angle_beta                  89.92966646887643 
_cell_angle_gamma                 123.84916251045819 
loop_ 
_atom_site_label 
_atom_site_type_symbol 
_atom_site_fract_x 
_atom_site_fract_y 
_atom_site_fract_z 
_atom_site_charge 
C1          C  0.59542147  0.64854167  0.19048717     0.03480
C2          C  0.55766933  0.61291643  0.19860755    -0.12670
C3          C  0.54739661  0.57935735  0.17492323     0.00980
C4          C  0.57567158  0.58297781  0.14592501    -0.11200
C5          C  0.60178015  0.61923354  0.12526524     0.03470
C6          C  0.61431062  0.65332156  0.14968215    -0.10620
H7          H  0.53986403  0.61003661  0.22652285     0.09060
H8          H  0.57141103  0.55684379  0.13234697     0.06590
H9          H  0.63978457  0.68166198  0.13907167     0.06440
C10         C  0.46719848  0.47350714  0.20053320     0.03480
C11         C  0.49591968  0.51385873  0.20874273    -0.12670
C12         C  0.50773524  0.54107976  0.17512673     0.00980
C13         C  0.48825670  0.52695379  0.13516516    -0.11200
C14         C  0.47129820  0.48737364  0.12359761     0.03470
C15         C  0.45854786  0.45967769  0.15732201    -0.10620
H16         H  0.50783204  0.52387963  0.24105240     0.09060
H17         H  0.49227264  0.54755722  0.11070232     0.06590
H18         H  0.44178373  0.42832943  0.15031543     0.06440
C19         C  0.46558501  0.47416707  0.00183514     0.03480
C20         C  0.45189996  0.46469564  0.04519863    -0.12670
C21         C  0.48010579  0.48053750  0.07872364     0.00980
C22         C  0.52061767  0.50179896  0.06697594    -0.11200
C23         C  0.53306658  0.52093795  0.02657354     0.03470
C24         C  0.50536250  0.50549034  0.99297115    -0.10620
H25         H  0.42027199  0.44538386  0.05247792     0.09060
H26         H  0.54242669  0.50992451  0.09177263     0.06590
H27         H  0.51439809  0.51743932  0.96046583     0.06440
C28         C  0.63514635  0.61792772  0.00900878     0.03480
C29         C  0.63844487  0.63454970  0.05068368    -0.12670
C30         C  0.60409283  0.61663828  0.07694969     0.00980
C31         C  0.56836308  0.58725864  0.05757783    -0.11200
C32         C  0.56828253  0.56267598  0.02651619     0.03470
C33         C  0.60214726  0.57883437  0.00024314    -0.10620
H34         H  0.66551579  0.66184979  0.06070705     0.09060
H35         H  0.54094673  0.57852483  0.07277207     0.06590
H36         H  0.60113246  0.56362074  0.97099622     0.06440
C37         C  0.61552485  0.05857567  0.19898261     0.03480
C38         C  0.58264765  0.06160134  0.20744438    -0.12670
C39         C  0.55177864  0.04669477  0.17712021     0.00980
C40         C  0.55473427  0.02788368  0.14087342    -0.11200
C41         C  0.59236377  0.03967742  0.12443395     0.03470
C42         C  0.62317428  0.05316952  0.15518492    -0.10620
H43         H  0.58040508  0.07360018  0.23777013     0.09060
H44         H  0.52917999  0.00970227  0.12137701     0.06590
H45         H  0.65154668  0.05814343  0.14576217     0.06440
C46         C  0.45470038  0.04110756  0.19635213     0.03480
C47         C  0.48835943  0.03965178  0.20621477    -0.12670
C48         C  0.52010386  0.05534438  0.17675968     0.00980
C49         C  0.51798947  0.07459344  0.14039830    -0.11200
C50         C  0.48084311  0.06295994  0.12290612     0.03470
C51         C  0.44898156  0.04852605  0.15256117    -0.10620
H52         H  0.49049295  0.02827440  0.23712405     0.09060
H53         H  0.54410230  0.09309507  0.12145921     0.06590
H54         H  0.42167067  0.04514245  0.14211910     0.06440
C55         C  0.47736990  0.07430012  0.99895296     0.03480
C56         C  0.46519927  0.07267415  0.04296824    -0.12670
C57         C  0.47719611  0.05613664  0.07446682     0.00980
C58         C  0.49557419  0.03787601  0.05872635    -0.11200
C59         C  0.51953147  0.05229727  0.02170835     0.03470
C60         C  0.50975813  0.07049045  0.99056240    -0.10620
H61         H  0.44579639  0.08217813  0.05183258     0.09060
H62         H  0.49724589  0.01811094  0.07931400     0.06590
H63         H  0.52489445  0.07889013  0.95946830     0.06440
C64         C  0.59903933  0.03036467  0.00060979     0.03480
C65         C  0.61008632  0.03123557  0.04490228    -0.12670
C66         C  0.59752709  0.04750810  0.07609768     0.00980
C67         C  0.57978837  0.06627498  0.05987656    -0.11200
C68         C  0.55688112  0.05270138  0.02218966     0.03470
C69         C  0.56721231  0.03479961  0.99137783    -0.10620
H70         H  0.62894800  0.02121413  0.05424104     0.09060
H71         H  0.57756780  0.08569395  0.08054822     0.06590
H72         H  0.55293457  0.02707421  0.95989568     0.06440
O73         O  0.77150168  0.83056870  0.40850709    -0.57470
C74         C  0.80806336  0.75658916  0.40908265     0.75160
O75         O  0.69020039  0.71454159  0.47690968    -0.58630
C76         C  0.74199356  0.83208885  0.41889346     0.75130
C77         C  0.69092301  0.72192340  0.34345469     0.77530
Cd78       Cd  0.73813163  0.75926623  0.41909894     1.37460
O79         O  0.81026001  0.78860135  0.41358428    -0.57460
O80         O  0.72182268  0.75677936  0.34226039    -0.56270
C81         C  0.71664243  0.73005344  0.50620452     0.77490
O82         O  0.68216944  0.70430067  0.37970490    -0.58650
O83         O  0.77300357  0.72562650  0.40701937    -0.57100
O84         O  0.71076502  0.79970377  0.43076429    -0.57090
O85         O  0.75090384  0.75887753  0.49504322    -0.56260
O86         O  0.06278612  0.81399742  0.40308795    -0.57470
C87         C  0.94597167  0.74515786  0.40955100     0.75160
O88         O  0.99908313  0.67935857  0.38663249    -0.58630
C89         C  0.09466720  0.81683315  0.41359908     0.75130
C90         C  0.00872657  0.72245204  0.51006988     0.77530
Cd91       Cd  0.01593143  0.74286471  0.41933869     1.37470
O92         O  0.98106730  0.77624917  0.40949628    -0.57460
O93         O  0.99513809  0.74091126  0.49330794    -0.56270
C94         C  0.00658489  0.69221264  0.34804976     0.77490
O95         O  0.02638350  0.71257659  0.48450258    -0.58650
O96         O  0.94354251  0.71291412  0.41285805    -0.57100
O97         O  0.09019944  0.78500297  0.42618523    -0.57090
O98         O  0.01901815  0.72816962  0.34328041    -0.56260
O99         O  0.82235582  0.09478182  0.39677765    -0.57470
C100        C  0.74339057  0.97564452  0.40899118     0.75160
O101        O  0.71370073  0.05011362  0.48051544    -0.58630
C102        C  0.82598358  0.12669630  0.40722113     0.75130
C103        C  0.70677786  0.05347159  0.34171439     0.77530
Cd104      Cd  0.75067831  0.05042245  0.41411413     1.37470
O105        O  0.77576052  0.00838573  0.40070328    -0.57460
O106        O  0.74060111  0.05869131  0.33730387    -0.56270
C107        C  0.73967088  0.05270877  0.50622301     0.77490
O108        O  0.69246548  0.04583150  0.37986542    -0.58650
O109        O  0.71364073  0.97738884  0.41725961    -0.57100
O110        O  0.79424154  0.12325159  0.41995883    -0.57090
O111        O  0.76821370  0.05296845  0.48892880    -0.56260
O112        O  0.00912664  0.28453444  0.39543470    -0.57470
C113        C  0.12745594  0.35503621  0.40602684     0.75160
O114        O  0.07203231  0.41876170  0.38035169    -0.58630
C115        C  0.97717252  0.28172968  0.40568729     0.75130
C116        C  0.05810684  0.36598193  0.50559834     0.77530
Cd117      Cd  0.05578655  0.35488732  0.41290213     1.37470
O118        O  0.09336376  0.32526713  0.39570840    -0.57460
O119        O  0.05987178  0.33961245  0.48666568    -0.56270
C120        C  0.06426765  0.40578594  0.34183067     0.77490
O121        O  0.05393935  0.38855394  0.48106316    -0.58650
O122        O  0.12839829  0.38536735  0.41732804    -0.57100
O123        O  0.98139383  0.31356956  0.41780336    -0.57090
O124        O  0.05259479  0.37009874  0.33705666    -0.56260
O125        O  0.30189131  0.26793290  0.41491733    -0.57470
C126        C  0.26434923  0.34223223  0.41565563     0.75160
O127        O  0.38011496  0.38689967  0.48024720    -0.58630
C128        C  0.33380068  0.26863748  0.41631563     0.75130
C129        C  0.38079042  0.38048760  0.34914439     0.77530
Cd130      Cd  0.33468598  0.33948179  0.42363540     1.37470
O131        O  0.26213146  0.31003195  0.41439387    -0.57460
O132        O  0.35423012  0.34385725  0.34796716    -0.56270
C133        C  0.36306956  0.36178977  0.51048123     0.77490
O134        O  0.38645702  0.39799456  0.38490189    -0.58650
O135        O  0.29907058  0.37285615  0.42094274    -0.57100
O136        O  0.36585974  0.30235685  0.42135570    -0.57090
O137        O  0.33372352  0.32777877  0.50015193    -0.56260
O138        O  0.29436364  0.08817200  0.39733389    -0.57470
C139        C  0.24663141  0.97144152  0.40953935     0.75160
O140        O  0.38017314  0.05186518  0.38270174    -0.58630
C141        C  0.32568985  0.12147803  0.40599748     0.75130
C142        C  0.33362257  0.05338355  0.50709972     0.77530
Cd143      Cd  0.32140143  0.04828087  0.41448634     1.37460
O144        O  0.25032243  0.00289460  0.39680771    -0.57460
O145        O  0.30194062  0.04512512  0.48864317    -0.56270
C146        C  0.36761172  0.04585827  0.34396349     0.77490
O147        O  0.36083572  0.05722501  0.48236839    -0.58650
O148        O  0.27829281  0.97549261  0.42366374    -0.57100
O149        O  0.35602875  0.12113544  0.41566596    -0.57090
O150        O  0.33405802  0.04096149  0.33823546    -0.56260
O151        O  0.80853127  0.78188429  0.78980104    -0.57470
C152        C  0.73766688  0.82487413  0.77843869     0.75160
O153        O  0.68819707  0.71131709  0.71814817    -0.58630
C154        C  0.80664987  0.75033118  0.78185642     0.75130
C155        C  0.70185684  0.71126801  0.85398436     0.77530
Cd156      Cd  0.73770183  0.75377493  0.77551873     1.37460
O157        O  0.76974290  0.82606024  0.77647217    -0.57460
O158        O  0.73691493  0.74204045  0.85288665    -0.56270
C159        C  0.71450733  0.72627969  0.68846923     0.77490
O160        O  0.68271595  0.70046741  0.81857167    -0.58650
O161        O  0.70575636  0.79069647  0.77912641    -0.57100
O162        O  0.77302826  0.72081707  0.76986748    -0.57090
O163        O  0.74970402  0.75307451  0.69959372    -0.56260
O164        O  0.97940660  0.77531023  0.80088862    -0.57470
C165        C  0.09705143  0.82810614  0.79093086     0.75160
O166        O  0.03792941  0.70697378  0.81948575    -0.58630
C167        C  0.94674418  0.74420056  0.78937388     0.75130
C168        C  0.01461149  0.72820906  0.69507889     0.77530
Cd169      Cd  0.02177656  0.75106986  0.78456390     1.37460
O170        O  0.06434382  0.82231120  0.80367100    -0.57460
O171        O  0.01076329  0.75533513  0.70802612    -0.56270
C172        C  0.02443246  0.70700385  0.85648454     0.77490
O173        O  0.02235972  0.71101702  0.72363841    -0.58650
O174        O  0.09460735  0.79832413  0.77481901    -0.57100
O175        O  0.94849478  0.71534956  0.77784671    -0.57090
O176        O  0.00770768  0.72552248  0.85949781    -0.56260
O177        O  0.77342550  0.00346212  0.80057046    -0.57470
C178        C  0.82081470  0.11985542  0.79664788     0.75160
O179        O  0.70612025  0.03741110  0.71951442    -0.58630
C180        C  0.74410669  0.97124866  0.78574346     0.75130
C181        C  0.69472857  0.03402791  0.85716367     0.77530
Cd182      Cd  0.74613935  0.04317170  0.78560532     1.37470
O183        O  0.81798561  0.08768055  0.80300092    -0.57460
O184        O  0.71921611  0.02402628  0.86023396    -0.56270
C185        C  0.73501041  0.04789828  0.69373207     0.77490
O186        O  0.69369815  0.04804088  0.82081506    -0.58650
O187        O  0.78829204  0.11648736  0.78813761    -0.57100
O188        O  0.71516634  0.97228227  0.77158712    -0.57090
O189        O  0.76691552  0.05529294  0.71095737    -0.56260
O190        O  0.08767883  0.32281616  0.80546904    -0.57470
C191        C  0.97149306  0.27506296  0.79053731     0.75160
O192        O  0.06208567  0.41060125  0.82291632    -0.58630
C193        C  0.12152927  0.35350161  0.79633814     0.75130
C194        C  0.05289350  0.36492003  0.69387386     0.77530
Cd195      Cd  0.04818759  0.34981750  0.78604303     1.37460
O196        O  0.00374252  0.27878072  0.80158458    -0.57460
O197        O  0.05419105  0.33763042  0.71146901    -0.56270
C198        C  0.04514433  0.39330717  0.85821832     0.77490
O199        O  0.04798628  0.38627955  0.71946055    -0.58650
O200        O  0.97493581  0.30623573  0.77700313    -0.57100
O201        O  0.12167362  0.38350336  0.78521488    -0.57090
O202        O  0.02958503  0.35652448  0.85959402    -0.56260
O203        O  0.29581827  0.27126937  0.78360171    -0.57470
C204        C  0.26303957  0.34955120  0.78153250     0.75160
O205        O  0.39165093  0.39159839  0.81803875    -0.58630
C206        C  0.32690107  0.27133478  0.79006702     0.75130
C207        C  0.36023567  0.36315452  0.69196705     0.77530
Cd208      Cd  0.33102825  0.34390487  0.77869484     1.37470
O209        O  0.26094627  0.31861014  0.79336812    -0.57460
O210        O  0.33006223  0.32997519  0.70337043    -0.56270
C211        C  0.37353488  0.38854309  0.85293949     0.77490
O212        O  0.37688970  0.38966234  0.72079592    -0.58650
O213        O  0.29648048  0.37730432  0.76666829    -0.57100
O214        O  0.35930569  0.30503571  0.79297345    -0.57090
O215        O  0.33594039  0.36509702  0.85324353    -0.56260
O216        O  0.29816470  0.09665025  0.80508421    -0.57470
C217        C  0.25185240  0.97943065  0.79696893     0.75160
O218        O  0.36392492  0.06117802  0.72079408    -0.58630
C219        C  0.32869665  0.12950687  0.79280722     0.75130
C220        C  0.37871865  0.06742655  0.85742342     0.77530
Cd221      Cd  0.32565135  0.05736474  0.78774485     1.37470
O222        O  0.25379708  0.01082212  0.80576196    -0.57460
O223        O  0.35248700  0.07500529  0.86212370    -0.56270
C224        C  0.33874091  0.06016827  0.69517836     0.77490
O225        O  0.38037348  0.05486803  0.82042474    -0.58650
O226        O  0.28463613  0.98421402  0.78645547    -0.57100
O227        O  0.35780879  0.12863504  0.77901731    -0.57090
O228        O  0.30912153  0.05766939  0.71293471    -0.56260
C229        C  0.03396627  0.47433083  0.00499564     0.03480
C230        C  0.02662594  0.50354157  0.99393875    -0.12670
C231        C  0.03924856  0.53513063  0.02224303     0.00980
C232        C  0.06248810  0.53812849  0.05753476    -0.11200
C233        C  0.05725713  0.50409728  0.07623453     0.03470
C234        C  0.04490483  0.47204861  0.04822694    -0.10620
H235        H  0.01277136  0.50232738  0.96337290     0.09060
H236        H  0.07853905  0.56511284  0.07512428     0.06590
H237        H  0.04447050  0.44653897  0.05920366     0.06440
C238        C  0.03186998  0.62324668  0.00377428     0.03480
C239        C  0.03537982  0.59153963  0.99243970    -0.12670
C240        C  0.02388262  0.56122842  0.02247287     0.00980
C241        C  0.00516342  0.56182346  0.06048720    -0.11200
C242        C  0.01433221  0.59782362  0.07764012     0.03470
C243        C  0.02654849  0.62885417  0.04809727    -0.10620
H244        H  0.04606049  0.59010424  0.96072015     0.09060
H245        H  0.98910875  0.53582192  0.08008510     0.06590
H246        H  0.03158794  0.65653435  0.05904435     0.06440
C247        C  0.07652564  0.50451366  0.19911225     0.03480
C248        C  0.07524202  0.49411355  0.15458170    -0.12670
C249        C  0.05392578  0.50197273  0.12502496     0.00980
C250        C  0.03202229  0.51575966  0.14263049    -0.11200
C251        C  0.04456540  0.53855646  0.18013547     0.03470
C252        C  0.06524004  0.53089911  0.21052529    -0.10620
H253        H  0.08835360  0.47836225  0.14410324     0.09060
H254        H  0.01015962  0.51523489  0.12304991     0.06590
H255        H  0.06953282  0.54264487  0.24296015     0.06440
C256        C  0.00468522  0.60312717  0.20104116     0.03480
C257        C  0.00092304  0.60963611  0.15641628    -0.12670
C258        C  0.02233704  0.60321922  0.12550311     0.00980
C259        C  0.04805567  0.59322881  0.14133277    -0.11200
C260        C  0.03958002  0.57244258  0.18039313     0.03470
C261        C  0.01931697  0.57945104  0.21205931    -0.10620
H262        H  0.98351128  0.62116635  0.14650251     0.09060
H263        H  0.06950465  0.59467219  0.11988731     0.06590
H264        H  0.01659414  0.56836765  0.24470370     0.06440
C265        C  0.29305930  0.16317263  0.79917185    -0.19960
C266        C  0.32949084  0.16650209  0.79368040    -0.06530
C267        C  0.36507392  0.20468090  0.78850913     0.14340
C268        C  0.36293309  0.23792898  0.78835569    -0.20010
C269        C  0.32636128  0.23451746  0.79274314    -0.06530
C270        C  0.29088894  0.19642348  0.79852728     0.14330
C271        C  0.25056027  0.19018403  0.80439023    -0.23360
H272        H  0.26573131  0.13412430  0.80324964     0.15620
H273        H  0.39023864  0.26695091  0.78392731     0.15650
C274        C  0.40559947  0.21114059  0.78342985    -0.23310
H275        H  0.22660410  0.15861120  0.81036276     0.05860
H276        H  0.24235625  0.19947539  0.77466149     0.09090
H277        H  0.25127749  0.20739059  0.83267315     0.09080
H278        H  0.40670177  0.19734566  0.75293644     0.09070
H279        H  0.41173444  0.19831522  0.81163496     0.09070
H280        H  0.43000426  0.24306173  0.78169674     0.05840
C281        C  0.07233076  0.46939449  0.94640381    -0.19960
C282        C  0.03634658  0.45129426  0.96977437    -0.06530
C283        C  0.00341713  0.41413041  0.95672956     0.14340
C284        C  0.00726432  0.39575379  0.92031420    -0.20010
C285        C  0.04301588  0.41430232  0.89612729    -0.06530
C286        C  0.07611984  0.45148171  0.90965097     0.14330
C287        C  0.11575642  0.47193757  0.88631309    -0.23360
H288        H  0.09746169  0.49814053  0.95668228     0.15620
H289        H  0.98196704  0.36710846  0.91012898     0.15650
C290        C  0.96429871  0.39435217  0.98083060    -0.23310
H291        H  0.13878154  0.49982615  0.90269343     0.05860
H292        H  0.11244351  0.47956322  0.85276128     0.09090
H293        H  0.12676748  0.45228004  0.88540663     0.09080
H294        H  0.95266158  0.41347712  0.97991109     0.09070
H295        H  0.96881670  0.38935057  0.01509495     0.09070
H296        H  0.94145601  0.36534104  0.96633197     0.05840
C297        C  0.19081715  0.38214966  0.76998121    -0.19960
C298        C  0.15868958  0.35389452  0.79602466    -0.06530
C299        C  0.16211903  0.32564050  0.81868407     0.14340
C300        C  0.19665949  0.32553044  0.81332939    -0.20010
C301        C  0.22818452  0.35281632  0.78607139    -0.06530
C302        C  0.22542547  0.38203990  0.76459046     0.14330
C303        C  0.25802477  0.41261307  0.73503191    -0.23360
H304        H  0.18840240  0.40389905  0.75260460     0.15620
H305        H  0.19891655  0.30366773  0.83064761     0.15650
C306        C  0.12998414  0.29574711  0.84911716    -0.23310
H307        H  0.24993197  0.43202727  0.71992831     0.05860
H308        H  0.26348330  0.39779941  0.70846026     0.09090
H309        H  0.28591726  0.43188709  0.75376109     0.09080
H310        H  0.10242043  0.27470452  0.83076208     0.09070
H311        H  0.12350655  0.31113237  0.87400629     0.09070
H312        H  0.13918262  0.27805415  0.86631857     0.05840
C313        C  0.93277011  0.20193211  0.79811819    -0.19960
C314        C  0.93230462  0.23598628  0.79309760    -0.06530
C315        C  0.89483272  0.23158214  0.79099625     0.14340
C316        C  0.85936191  0.19351018  0.79337223    -0.20010
C317        C  0.85982137  0.15933544  0.79761073    -0.06530
C318        C  0.89738046  0.16387528  0.80017032     0.14330
C319        C  0.90099945  0.12906433  0.80423435    -0.23360
H320        H  0.96125147  0.20497785  0.79976856     0.15620
H321        H  0.83090299  0.19047809  0.79143891     0.15650
C322        C  0.89155894  0.26658362  0.78673140    -0.23310
H323        H  0.93269317  0.13839983  0.80550015     0.05860
H324        H  0.88706796  0.10933623  0.77576710     0.09090
H325        H  0.88631486  0.11253218  0.83458837     0.09080
H326        H  0.90477102  0.28199689  0.75545277     0.09070
H327        H  0.90721436  0.28726472  0.81412766     0.09070
H328        H  0.85995195  0.25756417  0.78726421     0.05840
C329        C  0.06289663  0.66531000  0.93813944    -0.19960
C330        C  0.03203695  0.64859667  0.96905402    -0.06530
C331        C  0.99882728  0.65139094  0.96275360     0.14340
C332        C  0.99758218  0.67096889  0.92595420    -0.20010
C333        C  0.02792026  0.68679910  0.89448477    -0.06530
C334        C  0.06121521  0.68416780  0.90082512     0.14330
C335        C  0.09542502  0.70165395  0.86894558    -0.23360
H336        H  0.08808941  0.66281922  0.94282825     0.15620
H337        H  0.97209265  0.67297225  0.92110132     0.15650
C338        C  0.96347590  0.63197749  0.99329223    -0.23310
H339        H  0.11969771  0.69850819  0.88027401     0.05860
H340        H  0.10833874  0.73367971  0.86451956     0.09090
H341        H  0.08478897  0.68625815  0.83733416     0.09080
H342        H  0.97261874  0.64604139  0.02566127     0.09070
H343        H  0.95106435  0.59993415  0.99627756     0.09070
H344        H  0.93914270  0.63488879  0.98160140     0.05840
C345        C  0.17122853  0.86869242  0.78448595    -0.19960
C346        C  0.13626466  0.86708059  0.79451723    -0.06530
C347        C  0.13995423  0.90244569  0.80717511     0.14340
C348        C  0.17805974  0.93802846  0.80858226    -0.20010
C349        C  0.21297993  0.93980902  0.79767763    -0.06530
C350        C  0.20931240  0.90424684  0.78581410     0.14330
C351        C  0.24497790  0.90301756  0.77402923    -0.23360
H352        H  0.16882903  0.84179743  0.77516147     0.15620
H353        H  0.18042119  0.96492599  0.81775422     0.15650
C354        C  0.10415517  0.90353085  0.81864551    -0.23310
H355        H  0.23629142  0.87256024  0.76635900     0.05860
H356        H  0.26617130  0.91373208  0.80164415     0.09090
H357        H  0.26005033  0.92153508  0.74486416     0.09080
H358        H  0.08854867  0.88437455  0.84726545     0.09070
H359        H  0.08342277  0.89342270  0.79063786     0.09070
H360        H  0.11279527  0.93383748  0.82701859     0.05840
C361        C  0.70668567  0.89838375  0.77598003    -0.19960
C362        C  0.74325886  0.93418495  0.78471696    -0.06530
C363        C  0.77779374  0.93357991  0.79116149     0.14340
C364        C  0.77462363  0.89750165  0.78878490    -0.20010
C365        C  0.73804741  0.86167295  0.78032965    -0.06530
C366        C  0.70349138  0.86224951  0.77376637     0.14330
C367        C  0.66316382  0.82533595  0.76371502    -0.23360
H368        H  0.68015043  0.89856251  0.77090495     0.15620
H369        H  0.80117392  0.89736163  0.79382392     0.15650
C370        C  0.81841260  0.97061714  0.79986400    -0.23310
H371        H  0.64009191  0.83180357  0.75815713     0.05860
H372        H  0.65282102  0.80431119  0.79135052     0.09090
H373        H  0.66512411  0.81131197  0.73384818     0.09080
H374        H  0.81788435  0.98405906  0.83090914     0.09070
H375        H  0.82709314  0.99200889  0.77283313     0.09070
H376        H  0.84195490  0.96445834  0.80266489     0.05840
C377        C  0.84539211  0.72339840  0.75671216    -0.19960
C378        C  0.84182367  0.74781522  0.78570602    -0.06530
C379        C  0.87143420  0.76863905  0.81780506     0.14340
C380        C  0.90464217  0.76586506  0.81877176    -0.20010
C381        C  0.90896679  0.74251461  0.78889042    -0.06530
C382        C  0.87860185  0.72057294  0.75767696     0.14330
C383        C  0.88165214  0.69553798  0.72404263    -0.23360
H384        H  0.82249499  0.70717646  0.73234156     0.15620
H385        H  0.92759311  0.78228156  0.84300170     0.15650
C386        C  0.86782706  0.79297441  0.85190979    -0.23310
H387        H  0.85607264  0.68200421  0.70113224     0.05860
H388        H  0.88166709  0.67111833  0.74004509     0.09090
H389        H  0.90952382  0.71405617  0.70484130     0.09080
H390        H  0.83902973  0.77434501  0.86960777     0.09070
H391        H  0.86936279  0.81847068  0.83663943     0.09070
H392        H  0.89235577  0.80498061  0.87603765     0.05840
C393        C  0.31794506  0.07071557  0.62429175    -0.19960
C394        C  0.34223255  0.06185579  0.64697178    -0.06530
C395        C  0.36673035  0.05346300  0.62300303     0.14340
C396        C  0.36424434  0.05186907  0.57727488    -0.20010
C397        C  0.33786717  0.05832616  0.55500357    -0.06530
C398        C  0.31537808  0.06917777  0.57909070     0.14330
C399        C  0.28879068  0.07989051  0.55787679    -0.23360
H400        H  0.30006464  0.07845294  0.64219163     0.15620
H401        H  0.38214282  0.04442293  0.55892661     0.15650
C402        C  0.39468993  0.04521407  0.64510087    -0.23310
H403        H  0.27649321  0.09088200  0.58172716     0.05860
H404        H  0.26283991  0.05350979  0.54224015     0.09090
H405        H  0.30615247  0.10370553  0.53353103     0.09080
H406        H  0.37749906  0.01913631  0.66680981     0.09070
H407        H  0.41715249  0.07140250  0.66424322     0.09070
H408        H  0.41113370  0.03882373  0.62135490     0.05840
C409        C  0.37649484  0.34132858  0.57908366    -0.19960
C410        C  0.37560750  0.37044200  0.55598670    -0.06530
C411        C  0.37945083  0.40265129  0.57832236     0.14340
C412        C  0.37864503  0.40199942  0.62390455    -0.20010
C413        C  0.37386624  0.36977715  0.64672389    -0.06530
C414        C  0.37575749  0.34064873  0.62430768     0.14330
C415        C  0.37598507  0.30821576  0.64781790    -0.23360
H416        H  0.37501169  0.31746690  0.56158013     0.15620
H417        H  0.37817849  0.42477444  0.64147540     0.15650
C418        C  0.38116153  0.43584646  0.55442285    -0.23310
H419        H  0.38035727  0.28978711  0.62509719     0.05860
H420        H  0.34721114  0.28824613  0.66491086     0.09090
H421        H  0.40084726  0.32143683  0.67160378     0.09080
H422        H  0.35374163  0.42400510  0.53467049     0.09070
H423        H  0.40780807  0.45096755  0.53286108     0.09070
H424        H  0.38342139  0.45819000  0.57706742     0.05830
C425        C  0.36447992  0.19500966  0.40829012    -0.19960
C426        C  0.32698885  0.15881985  0.40612646    -0.06530
C427        C  0.29202382  0.15928963  0.40676080     0.14340
C428        C  0.29564787  0.19555465  0.40972349    -0.20010
C429        C  0.33306978  0.23172175  0.41239535    -0.06530
C430        C  0.36811589  0.23133281  0.41139102     0.14330
C431        C  0.40957902  0.26868897  0.41360113    -0.23360
H432        H  0.39135504  0.19493292  0.40786689     0.15620
H433        H  0.26869425  0.19547301  0.41045691     0.15650
C434        C  0.25054400  0.12191135  0.40550138    -0.23310
H435        H  0.43315646  0.26250489  0.41181984     0.05860
H436        H  0.41354863  0.28406938  0.44476320     0.09090
H437        H  0.41438571  0.28840359  0.38594419     0.09080
H438        H  0.24613695  0.10270969  0.43354421     0.09070
H439        H  0.24616181  0.10597388  0.37467204     0.09070
H440        H  0.22697073  0.12810173  0.40730832     0.05840
C441        C  0.10002646  0.47112685  0.30373389    -0.19960
C442        C  0.06869151  0.43077198  0.30417536    -0.06530
C443        C  0.04232789  0.41486318  0.26836272     0.14340
C444        C  0.04750448  0.43969170  0.23380443    -0.20010
C445        C  0.07820750  0.48007277  0.23365344    -0.06530
C446        C  0.10530713  0.49594117  0.26869738     0.14330
C447        C  0.14039886  0.53847198  0.26858178    -0.23360
H448        H  0.12068013  0.48320355  0.33073902     0.15620
H449        H  0.02633572  0.42773770  0.20722666     0.15650
C450        C  0.00739098  0.37218106  0.26700318    -0.23310
H451        H  0.15977640  0.54533604  0.29734782     0.05860
H452        H  0.13011306  0.55865282  0.26906389     0.09090
H453        H  0.15879904  0.54444190  0.23907418     0.09080
H454        H  0.98826133  0.36510741  0.29613502     0.09070
H455        H  0.01828231  0.35247041  0.26564609     0.09070
H456        H  0.98842822  0.36578108  0.23796195     0.05840
C457        C  0.04755329  0.39084336  0.57526712    -0.19960
C458        C  0.06034884  0.36922718  0.55381275    -0.06530
C459        C  0.07431790  0.35010180  0.57909362     0.14340
C460        C  0.07257118  0.35098059  0.62427234    -0.20010
C461        C  0.05736351  0.37022887  0.64588149    -0.06530
C462        C  0.04598639  0.39170933  0.62100493     0.14330
C463        C  0.03139469  0.41476980  0.64209141    -0.23360
H464        H  0.03769436  0.40626416  0.55620336     0.15620
H465        H  0.08273882  0.33564599  0.64299331     0.15650
C466        C  0.09143131  0.32856237  0.55942243    -0.23310
H467        H  0.02351807  0.42945666  0.61770752     0.05860
H468        H  0.05521587  0.43814401  0.66311977     0.09090
H469        H  0.00428910  0.39465090  0.66179336     0.09080
H470        H  0.11643331  0.34858801  0.53711489     0.09070
H471        H  0.06778649  0.30186524  0.54186851     0.09070
H472        H  0.10350805  0.31825620  0.58441944     0.05840
C473        C  0.15797411  0.31643713  0.39993113    -0.19960
C474        C  0.16354083  0.35337573  0.40629203    -0.06530
C475        C  0.20273700  0.38672816  0.41445155     0.14340
C476        C  0.23460940  0.38186321  0.41676750    -0.20010
C477        C  0.22885704  0.34470013  0.41150213    -0.06530
C478        C  0.18978917  0.31153120  0.40252061     0.14330
C479        C  0.18085672  0.27069926  0.39563443    -0.23360
H480        H  0.12817707  0.29076577  0.39359751     0.15620
H481        H  0.26438338  0.40750561  0.42331573     0.15650
C482        C  0.21171655  0.42765370  0.42080946    -0.23310
H483        H  0.14877903  0.24869724  0.38831034     0.05860
H484        H  0.18806124  0.26053573  0.42541683     0.09090
H485        H  0.19853930  0.27102215  0.36779301     0.09080
H486        H  0.19621790  0.42829583  0.45025667     0.09070
H487        H  0.20198002  0.43646591  0.39191660     0.09070
H488        H  0.24420147  0.45012657  0.42526681     0.05840
C489        C  0.77020687  0.07523399  0.62426557    -0.19960
C490        C  0.73339136  0.05193692  0.64590110    -0.06530
C491        C  0.69775957  0.03202968  0.62109538     0.14340
C492        C  0.70034523  0.03409072  0.57536990    -0.20010
C493        C  0.73758425  0.05520203  0.55404825    -0.06530
C494        C  0.77289698  0.07709271  0.57905651     0.14330
C495        C  0.81383733  0.10297814  0.55864349    -0.23360
H496        H  0.79756703  0.09160527  0.64295694     0.15620
H497        H  0.67326870  0.01780482  0.55620878     0.15650
C498        C  0.65721102  0.00753823  0.64225452    -0.23310
H499        H  0.83734389  0.12068200  0.58322035     0.05860
H500        H  0.81404029  0.12396435  0.53542157     0.09090
H501        H  0.82223435  0.08458367  0.54173551     0.09080
H502        H  0.65234474  0.02657445  0.66332670     0.09070
H503        H  0.65512342  0.98359201  0.66193601     0.09070
H504        H  0.63280297  0.99358268  0.61790266     0.05840
C505        C  0.86479496  0.20037436  0.40937777    -0.19960
C506        C  0.86497744  0.16606788  0.40508864    -0.06530
C507        C  0.90226157  0.17040267  0.40011295     0.14340
C508        C  0.93773200  0.20844575  0.39975755    -0.20010
C509        C  0.93765910  0.24275115  0.40459639    -0.06530
C510        C  0.90037723  0.23847641  0.40926631     0.14330
C511        C  0.89740992  0.27361213  0.41386540    -0.23360
H512        H  0.83647381  0.19743141  0.41304082     0.15620
H513        H  0.96600893  0.21126950  0.39637672     0.15650
C514        C  0.90551842  0.13536932  0.39614913    -0.23310
H515        H  0.86584015  0.26464424  0.41555916     0.05860
H516        H  0.91158602  0.29358388  0.38547139     0.09090
H517        H  0.91230711  0.28977824  0.44418562     0.09080
H518        H  0.89007973  0.11846643  0.36635730     0.09070
H519        H  0.89214526  0.11603890  0.42515008     0.09070
H520        H  0.93710769  0.14449919  0.39382605     0.05840
C521        C  0.97714636  0.60517950  0.27281281    -0.19960
C522        C  0.99978723  0.62536415  0.23574292    -0.06530
C523        C  0.02329719  0.66728707  0.23560320     0.14340
C524        C  0.02373511  0.68761580  0.27236867    -0.20010
C525        C  0.00232067  0.66765181  0.31006771    -0.06530
C526        C  0.97811661  0.62569922  0.31002910     0.14330
C527        C  0.95321135  0.60223044  0.34874736    -0.23360
H528        H  0.95956133  0.57312271  0.27306226     0.15620
H529        H  0.04230630  0.71966831  0.27209681     0.15650
C530        C  0.05024534  0.69118748  0.19804297    -0.23310
H531        H  0.93495839  0.56994904  0.34215315     0.05860
H532        H  0.93245054  0.61105220  0.35737288     0.09090
H533        H  0.97289151  0.60737297  0.37667465     0.09080
H534        H  0.03214181  0.68696494  0.16895191     0.09070
H535        H  0.07109513  0.68214696  0.19088871     0.09070
H536        H  0.06861262  0.72337654  0.20512336     0.05840
C537        C  0.03743708  0.71687091  0.57890621    -0.19960
C538        C  0.00569170  0.71508100  0.55741451    -0.06530
C539        C  0.97369860  0.71057260  0.58216752     0.14340
C540        C  0.97646651  0.71234412  0.62745116    -0.20010
C541        C  0.00989995  0.71785214  0.64871927    -0.06530
C542        C  0.03996510  0.71841264  0.62445015     0.14330
C543        C  0.07589093  0.72327683  0.64625666    -0.23360
H544        H  0.06162342  0.71966513  0.56003627     0.15620
H545        H  0.95303136  0.71096977  0.64642587     0.15650
C546        C  0.93654180  0.70402162  0.56137000    -0.23310
H547        H  0.09703220  0.72414689  0.62236333     0.05860
H548        H  0.06614155  0.69804347  0.66861111     0.09090
H549        H  0.09210106  0.75130977  0.66490701     0.09080
H550        H  0.92358895  0.67859961  0.53872511     0.09070
H551        H  0.94356646  0.73091234  0.54367779     0.09070
H552        H  0.91329558  0.69727079  0.58589090     0.05840
C553        C  0.13520129  0.88926413  0.39896916    -0.19960
C554        C  0.13442625  0.85562489  0.41156024    -0.06530
C555        C  0.17114954  0.86039235  0.42233641     0.14340
C556        C  0.20692544  0.89831554  0.42068200    -0.20010
C557        C  0.20755243  0.93201944  0.40868403    -0.06530
C558        C  0.17086931  0.92714271  0.39743958     0.14330
C559        C  0.16838246  0.96142679  0.38427937    -0.23360
H560        H  0.10742284  0.88607989  0.39058593     0.15620
H561        H  0.23473971  0.90161408  0.42921234     0.15650
C562        C  0.17335509  0.82603570  0.43578765    -0.23310
H563        H  0.13722003  0.95190469  0.37701809     0.05860
H564        H  0.18640254  0.97561638  0.35451251     0.09090
H565        H  0.17930862  0.98327382  0.41101980     0.09080
H566        H  0.16165491  0.80376152  0.40944701     0.09070
H567        H  0.15577805  0.81242917  0.46593926     0.09070
H568        H  0.20455621  0.83534989  0.44245701     0.05840
C569        C  0.67646884  0.71331045  0.57367757    -0.19960
C570        C  0.70879294  0.71668739  0.55166165    -0.06530
C571        C  0.73691271  0.71331261  0.57502803     0.14340
C572        C  0.73520503  0.71218123  0.62026537    -0.20010
C573        C  0.70617660  0.71433398  0.64263472    -0.06530
C574        C  0.67486446  0.71225299  0.61930695     0.14330
C575        C  0.64168795  0.71201366  0.64220822    -0.23360
H576        H  0.65442014  0.71493489  0.55544541     0.15620
H577        H  0.75835231  0.71232759  0.63840367     0.15650
C578        C  0.76938093  0.71183152  0.55253699    -0.23310
H579        H  0.62010215  0.71097442  0.61891048     0.05860
H580        H  0.65427014  0.73914184  0.66207446     0.09090
H581        H  0.62506490  0.68556958  0.66353408     0.09080
H582        H  0.79070769  0.74023198  0.53588226     0.09070
H583        H  0.75578885  0.68744337  0.52851673     0.09070
H584        H  0.78685116  0.70640737  0.57584885     0.05840
C585        C  0.70676819  0.86643260  0.41677505    -0.19960
C586        C  0.74320006  0.86925620  0.41637178    -0.06530
C587        C  0.77935557  0.90716625  0.41294525     0.14340
C588        C  0.77791865  0.94074233  0.40993545    -0.20010
C589        C  0.74155254  0.93803682  0.41042075    -0.06530
C590        C  0.70533938  0.90008638  0.41385784     0.14330
C591        C  0.66495727  0.89433404  0.41408653    -0.23360
H592        H  0.67896729  0.83751105  0.41910394     0.15620
H593        H  0.80578070  0.96958764  0.40773094     0.15650
C594        C  0.81981155  0.91303752  0.41330705    -0.23310
H595        H  0.64011835  0.86253661  0.41530851     0.05860
H596        H  0.66123996  0.90711049  0.38411908     0.09090
H597        H  0.66202035  0.90864684  0.44306898     0.09080
H598        H  0.82321546  0.89903048  0.38433548     0.09070
H599        H  0.82321190  0.90007296  0.44332158     0.09070
H600        H  0.84460976  0.94484240  0.41248837     0.05840
C601        C  0.83868953  0.71817214  0.39934999    -0.19960
C602        C  0.84414356  0.75490450  0.40721412    -0.06530
C603        C  0.88347947  0.78832460  0.41474851     0.14340
C604        C  0.91564737  0.78390433  0.41433510    -0.20010
C605        C  0.91012835  0.74710559  0.40726282    -0.06530
C606        C  0.87089546  0.71370156  0.39943407     0.14330
C607        C  0.86233340  0.67321346  0.39087456    -0.23360
H608        H  0.80879575  0.69244270  0.39352786     0.15620
H609        H  0.94549201  0.80955917  0.42054823     0.15650
C610        C  0.89230508  0.82880395  0.42413104    -0.23310
H611        H  0.83022306  0.65116321  0.38373700     0.05860
H612        H  0.86998189  0.66250333  0.41984088     0.09090
H613        H  0.87990368  0.67440438  0.36242513     0.09080
H614        H  0.87628715  0.82776299  0.45397600     0.09070
H615        H  0.88308929  0.83921048  0.39624016     0.09070
H616        H  0.92469799  0.85105137  0.42953280     0.05840
C617        C  0.63087809  0.00097891  0.96062672    -0.19960
C618        C  0.62319933  0.03053381  0.96391894    -0.06530
C619        C  0.64025496  0.06155531  0.93269472     0.14340
C620        C  0.66246385  0.06094971  0.89812634    -0.20010
C621        C  0.66981852  0.03131155  0.89436726    -0.06530
C622        C  0.65422836  0.00109757  0.92637594     0.14330
C623        C  0.66123998  0.96845885  0.92417153    -0.23360
H624        H  0.61845399  0.97769161  0.98483720     0.15620
H625        H  0.67518150  0.08458867  0.87429605     0.15650
C626        C  0.63720260  0.09680201  0.93650469    -0.23310
H627        H  0.64527606  0.94641696  0.95055564     0.05860
H628        H  0.69361437  0.98092086  0.92761771     0.09090
H629        H  0.65032571  0.95278720  0.89271570     0.09080
H630        H  0.64714081  0.11019363  0.96917577     0.09070
H631        H  0.60612636  0.08799678  0.93067686     0.09070
H632        H  0.65635277  0.12009191  0.91226295     0.05840
C633        C  0.44408838  0.10227710  0.95923168    -0.19960
C634        C  0.45353356  0.07395498  0.96186568    -0.06530
C635        C  0.43769551  0.04345304  0.93025157     0.14340
C636        C  0.41450992  0.04317935  0.89628345    -0.20010
C637        C  0.40500301  0.07132058  0.89355366    -0.06530
C638        C  0.41980944  0.10123662  0.92560232     0.14330
C639        C  0.41089414  0.13257897  0.92412398    -0.23360
H640        H  0.45564361  0.12519072  0.98366006     0.15620
H641        H  0.40255393  0.01987493  0.87225745     0.15650
C642        C  0.44284879  0.00946336  0.93311904    -0.23310
H643        H  0.42654790  0.15469228  0.95034441     0.05860
H644        H  0.37833503  0.11885882  0.92838468     0.09090
H645        H  0.42084456  0.14845244  0.89257697     0.09080
H646        H  0.43342089  0.99540036  0.96564399     0.09070
H647        H  0.47435424  0.01982948  0.92682705     0.09070
H648        H  0.42440951  0.98625306  0.90870307     0.05840
C649        C  0.45179486  0.06739399  0.26735849    -0.19960
C650        C  0.43057228  0.04092773  0.23318337    -0.06530
C651        C  0.38845390  0.01551671  0.23617315     0.14340
C652        C  0.36890460  0.01795187  0.27273138    -0.20010
C653        C  0.39030747  0.04427877  0.30693535    -0.06530
C654        C  0.43243535  0.06914902  0.30423258     0.14330
C655        C  0.45723666  0.09846868  0.33933608    -0.23360
H656        H  0.48409127  0.08709989  0.26510282     0.15620
H657        H  0.33659395  0.99865937  0.27495507     0.15650
C658        C  0.36402852  0.98460275  0.20234071    -0.23310
H659        H  0.48953339  0.11673486  0.33077176     0.05860
H660        H  0.45412634  0.08261964  0.36995582     0.09090
H661        H  0.44735639  0.11875294  0.34453701     0.09080
H662        H  0.37610266  0.96618845  0.19700259     0.09070
H663        H  0.36426086  0.99863410  0.17148353     0.09070
H664        H  0.33226098  0.96465305  0.21248159     0.05840
C665        C  0.68099225  0.08170203  0.23442550    -0.19960
C666        C  0.63906130  0.05798972  0.23587665    -0.06530
C667        C  0.61981577  0.03172384  0.27152843     0.14340
C668        C  0.64287535  0.03158185  0.30546376    -0.20010
C669        C  0.68471363  0.05556239  0.30435509    -0.06530
C670        C  0.70409663  0.08060429  0.26795673     0.14330
C671        C  0.74902358  0.10689096  0.26447942    -0.23360
H672        H  0.69574106  0.10121402  0.20691357     0.15620
H673        H  0.62802683  0.01177804  0.33277149     0.15650
C674        C  0.57506682  0.00197229  0.27329428    -0.23310
H675        H  0.75886009  0.12574033  0.23494134     0.05860
H676        H  0.76154508  0.08858366  0.26256178     0.09090
H677        H  0.76151166  0.12667249  0.29308290     0.09080
H678        H  0.56470698  0.98434010  0.24298932     0.09070
H679        H  0.55935461  0.01700729  0.27790353     0.09070
H680        H  0.56615517  0.98098383  0.30080895     0.05840
C681        C  0.71019241  0.68521283  0.92283110    -0.19960
C682        C  0.68492464  0.68884371  0.89457735    -0.06530
C683        C  0.64438318  0.67115177  0.90571366     0.14340
C684        C  0.62990445  0.64926496  0.94405962    -0.20010
C685        C  0.65460748  0.64408600  0.97128213    -0.06530
C686        C  0.69533681  0.66269608  0.96110200     0.14330
C687        C  0.72258825  0.65790569  0.98975604    -0.23360
H688        H  0.74142271  0.69915951  0.91432311     0.15620
H689        H  0.59870976  0.63549519  0.95274096     0.15650
C690        C  0.61641678  0.67590918  0.87808521    -0.23310
H691        H  0.75346915  0.67382924  0.97645557     0.05860
H692        H  0.71109207  0.62608152  0.99266822     0.09090
H693        H  0.72400375  0.66992937  0.02245034     0.09080
H694        H  0.61207405  0.66153840  0.84618065     0.09070
H695        H  0.62891194  0.70781539  0.87332074     0.09070
H696        H  0.58646130  0.66200341  0.89338540     0.05840
C697        C  0.40914376  0.45427575  0.95200395    -0.19960
C698        C  0.43997513  0.45043714  0.96560991    -0.06530
C699        C  0.44785255  0.42528358  0.94311016     0.14340
C700        C  0.42573846  0.40575783  0.90610204    -0.20010
C701        C  0.39541575  0.41005662  0.89190138    -0.06530
C702        C  0.38644682  0.43404909  0.91521936     0.14330
C703        C  0.35415974  0.43950398  0.90044059    -0.23360
H704        H  0.40345519  0.47367463  0.96963196     0.15620
H705        H  0.43180672  0.38665872  0.88837053     0.15650
C706        C  0.47917791  0.41853251  0.95847890    -0.23310
H707        H  0.35225602  0.46046680  0.92155688     0.05860
H708        H  0.32468418  0.41075802  0.90135520     0.09090
H709        H  0.36052974  0.45138575  0.86683193     0.09080
H710        H  0.47246598  0.40718872  0.99231182     0.09070
H711        H  0.50924598  0.44655728  0.95720100     0.09070
H712        H  0.48005844  0.39659794  0.93803938     0.05840
C713        C  0.44760867  0.41711954  0.24993909    -0.19960
C714        C  0.44366086  0.44778710  0.23699950    -0.06530
C715        C  0.41766711  0.45477668  0.25977971     0.14340
C716        C  0.39788337  0.43230222  0.29655969    -0.20010
C717        C  0.40250217  0.40237855  0.31020351    -0.06530
C718        C  0.42693827  0.39398466  0.28650811     0.14330
C719        C  0.43214403  0.36168260  0.30061299    -0.23360
H720        H  0.46733934  0.41183677  0.23195474     0.15620
H721        H  0.37829929  0.43778993  0.31460057     0.15650
C722        C  0.40994393  0.48530298  0.24487639    -0.23310
H723        H  0.45311595  0.35980218  0.27901257     0.05860
H724        H  0.40288633  0.33270145  0.29986930     0.09090
H725        H  0.44424488  0.36752571  0.33409294     0.09080
H726        H  0.39929899  0.47932150  0.21080109     0.09070
H727        H  0.43761045  0.51543206  0.24718110     0.09070
H728        H  0.38677193  0.48479914  0.26501398     0.05840
C729        C  0.62509587  0.64624290  0.25872945    -0.19960
C730        C  0.62017782  0.66937878  0.22891594    -0.06530
C731        C  0.63922817  0.71015582  0.23644476     0.14340
C732        C  0.66245305  0.72666581  0.27410086    -0.20010
C733        C  0.66640065  0.70310498  0.30441686    -0.06530
C734        C  0.64749119  0.66231949  0.29646747     0.14330
C735        C  0.65164478  0.63560347  0.32667915    -0.23360
H736        H  0.61122648  0.61503421  0.25227338     0.15620
H737        H  0.67706385  0.75799867  0.28027977     0.15650
C738        C  0.63426835  0.73587306  0.20570874    -0.23310
H739        H  0.63675394  0.60511783  0.31367379     0.05860
H740        H  0.63748487  0.63337965  0.35839245     0.09090
H741        H  0.68376218  0.64738802  0.33138134     0.09080
H742        H  0.60203905  0.72411579  0.20230728     0.09070
H743        H  0.64680751  0.73651222  0.17346889     0.09070
H744        H  0.64999132  0.76680613  0.21752793     0.05840
loop_ 
_geom_bond_atom_site_label_1 
_geom_bond_atom_site_label_2 
_geom_bond_distance 
_geom_bond_site_symmetry_2 
_ccdc_geom_bond_type 
C1            C2   1.421       .  A
C1            C6   1.425       .  A
C1          C730   1.477       .  S
C2            C3   1.395       .  A
C2            H7   1.083       .  S
C3            C4   1.388       .  A
C3           C12   1.485       .  S
C4            C5   1.399       .  A
C4            H8   1.066       .  S
C5            C6   1.405       .  A
C5           C30   1.500       .  S
C6            H9   1.082       .  S
C10          C11   1.409       .  A
C10          C15   1.414       .  A
C10         C714   1.465       .  S
C11          C12   1.392       .  A
C11          H16   1.084       .  S
C12          C13   1.403       .  A
C13          C14   1.403       .  A
C13          H17   1.070       .  S
C14          C15   1.402       .  A
C14          C21   1.493       .  S
C15          H18   1.083       .  S
C19          C20   1.414       .  A
C19          C24   1.410   1_554  A
C19         C698   1.464   1_554  S
C20          C21   1.402       .  A
C20          H25   1.083       .  S
C21          C22   1.402       .  A
C22          C23   1.404       .  A
C22          H26   1.070       .  S
C23          C24   1.392   1_554  A
C23          C32   1.488       .  S
C24          H27   1.084       .  S
C28          C29   1.425       .  A
C28          C33   1.421       .  A
C28         C685   1.471   1_554  S
C29          C30   1.404       .  A
C29          H34   1.082       .  S
C30          C31   1.395       .  A
C31          C32   1.386       .  A
C31          H35   1.061       .  S
C32          C33   1.394       .  A
C33          H36   1.083   1_554  S
C37          C38   1.420       .  A
C37          C42   1.430       .  A
C37         C666   1.490       .  S
C38          C39   1.397       .  A
C38          H43   1.083       .  S
C39          C40   1.398       .  A
C39          C48   1.500       .  S
C40          C41   1.403       .  A
C40          H44   1.060       .  S
C41          C42   1.409       .  A
C41          C66   1.513       .  S
C42          H45   1.082       .  S
C46          C47   1.422       .  A
C46          C51   1.430       .  A
C46         C650   1.491       .  S
C47          C48   1.397       .  A
C47          H52   1.083       .  S
C48          C49   1.396       .  A
C49          C50   1.402       .  A
C49          H53   1.062       .  S
C50          C51   1.408       .  A
C50          C57   1.512       .  S
C51          H54   1.079       .  S
C55          C56   1.431   1_556  A
C55          C60   1.420       .  A
C55         C634   1.489       .  S
C56          C57   1.411       .  A
C56          H61   1.082       .  S
C57          C58   1.396       .  A
C58          C59   1.394       .  A
C58          H62   1.055       .  S
C59          C60   1.396   1_554  A
C59          C68   1.495       .  S
C60          H63   1.083       .  S
C64          C65   1.431       .  A
C64          C69   1.419   1_554  A
C64         C618   1.489   1_554  S
C65          C66   1.412       .  A
C65          H70   1.082       .  S
C66          C67   1.397       .  A
C67          C68   1.394       .  A
C67          H71   1.058       .  S
C68          C69   1.395   1_554  A
C69          H72   1.083       .  S
O73          C76   1.265       .  A
O73         Cd78   2.448       .  S
C74         C602   1.493       .  S
C74          O83   1.267       .  A
C74          O79   1.264       .  A
O75          C81   1.267       .  A
O75         Cd78   2.507       .  S
C76         C586   1.489       .  S
C76          O84   1.266       .  A
C77         C733   1.475       .  S
C77          O82   1.266       .  A
C77          O80   1.263       .  A
Cd78         O85   2.400       .  S
Cd78         O84   2.465       .  S
Cd78         O83   2.476       .  S
Cd78         O79   2.454       .  S
Cd78         O82   2.442       .  S
Cd78         O80   2.447       .  S
C81         C570   1.472       .  S
C81          O85   1.262       .  A
O86          C89   1.266       .  A
O86         Cd91   2.471       .  S
C87         C605   1.491       .  S
C87          O96   1.265       .  A
C87          O92   1.267       .  A
O88          C94   1.266   1_655  A
O88         Cd91   2.494   1_655  S
C89         C554   1.498       .  S
C89          O97   1.265       .  A
C90         C538   1.481       .  S
C90          O95   1.268       .  A
C90          O93   1.260   1_455  A
Cd91         O98   2.442       .  S
Cd91         O97   2.493       .  S
Cd91         O96   2.463   1_455  S
Cd91         O92   2.457   1_455  S
Cd91         O95   2.511       .  S
Cd91         O93   2.415   1_455  S
C94         C525   1.489       .  S
C94          O98   1.264       .  A
O99         C102   1.267       .  A
O99        Cd104   2.462       .  S
C100        C589   1.492       .  S
C100        O109   1.264       .  A
C100        O105   1.266   1_565  A
O101        C107   1.270       .  A
O101       Cd104   2.526       .  S
C102        C506   1.495       .  S
C102        O110   1.267       .  A
C103        C669   1.487       .  S
C103        O108   1.269       .  A
C103        O106   1.263       .  A
Cd104       O111   2.399       .  S
Cd104       O110   2.472       .  S
Cd104       O109   2.477   1_545  S
Cd104       O105   2.459       .  S
Cd104       O108   2.482       .  S
Cd104       O106   2.458       .  S
C107        C493   1.484       .  S
C107        O111   1.261       .  A
O112        C115   1.266   1_455  A
O112       Cd117   2.457       .  S
C113        C474   1.492       .  S
C113        O122   1.264       .  A
C113        O118   1.266       .  A
O114        C120   1.268       .  A
O114       Cd117   2.509       .  S
C115        C509   1.496       .  S
C115        O123   1.267       .  A
C116        C458   1.491       .  S
C116        O121   1.271       .  A
C116        O119   1.259       .  A
Cd117       O124   2.440       .  S
Cd117       O123   2.492   1_455  S
Cd117       O122   2.463       .  S
Cd117       O118   2.461       .  S
Cd117       O121   2.535       .  S
Cd117       O119   2.387       .  S
C120        C442   1.486       .  S
C120        O124   1.263       .  A
O125        C128   1.270       .  A
O125       Cd130   2.454       .  S
C126        C477   1.493       .  S
C126        O135   1.263       .  A
C126        O131   1.264       .  A
O127        C133   1.264       .  A
O127       Cd130   2.492       .  S
C128        C429   1.492       .  S
C128        O136   1.266       .  A
C129        C717   1.458       .  S
C129        O134   1.264       .  A
C129        O132   1.262       .  A
Cd130       O137   2.402       .  S
Cd130       O136   2.445       .  S
Cd130       O135   2.466       .  S
Cd130       O131   2.481       .  S
Cd130       O134   2.429       .  S
Cd130       O132   2.436       .  S
C133        C410   1.468       .  S
C133        O137   1.263       .  A
O138        C141   1.264       .  A
O138       Cd143   2.464       .  S
C139        C557   1.497       .  S
C139        O148   1.269       .  A
C139        O144   1.266   1_565  A
O140        C146   1.268       .  A
O140       Cd143   2.488       .  S
C141        C426   1.492       .  S
C141        O149   1.265       .  A
C142        C397   1.489       .  S
C142        O147   1.270       .  A
C142        O145   1.261       .  A
Cd143       O150   2.459       .  S
Cd143       O149   2.478       .  S
Cd143       O148   2.478   1_545  S
Cd143       O144   2.453       .  S
Cd143       O147   2.530       .  S
Cd143       O145   2.397       .  S
C146        C653   1.485       .  S
C146        O150   1.264       .  A
O151        C154   1.269       .  A
O151       Cd156   2.451       .  S
C152        C365   1.491       .  S
C152        O161   1.263       .  A
C152        O157   1.267       .  A
O153        C159   1.268       .  A
O153       Cd156   2.505       .  S
C154        C378   1.481       .  S
C154        O162   1.267       .  A
C155        C682   1.472       .  S
C155        O160   1.267       .  A
C155        O158   1.262       .  A
Cd156       O163   2.394       .  S
Cd156       O162   2.446       .  S
Cd156       O161   2.466       .  S
Cd156       O157   2.470       .  S
Cd156       O160   2.450       .  S
Cd156       O158   2.429       .  S
C159        C573   1.473       .  S
C159        O163   1.264       .  A
O164        C167   1.268       .  A
O164       Cd169   2.452   1_655  S
C165        C346   1.494       .  S
C165        O174   1.264       .  A
C165        O170   1.263       .  A
O166        C172   1.264       .  A
O166       Cd169   2.470       .  S
C167        C381   1.484       .  S
C167        O175   1.267       .  A
C168        C541   1.474       .  S
C168        O173   1.267       .  A
C168        O171   1.263       .  A
Cd169       O176   2.465       .  S
Cd169       O175   2.467   1_455  S
Cd169       O174   2.470       .  S
Cd169       O170   2.484       .  S
Cd169       O173   2.499       .  S
Cd169       O171   2.426       .  S
C172        C333   1.482       .  S
C172        O176   1.263       .  A
O177        C180   1.266   1_545  A
O177       Cd182   2.452       .  S
C178        C317   1.496       .  S
C178        O187   1.266       .  A
C178        O183   1.265       .  A
O179        C185   1.269       .  A
O179       Cd182   2.529       .  S
C180        C362   1.491       .  S
C180        O188   1.267       .  A
C181        C621   1.486       .  S
C181        O186   1.268       .  A
C181        O184   1.263       .  A
Cd182       O189   2.403       .  S
Cd182       O188   2.464   1_545  S
Cd182       O187   2.481       .  S
Cd182       O183   2.471       .  S
Cd182       O186   2.478       .  S
Cd182       O184   2.475       .  S
C185        C490   1.489       .  S
C185        O189   1.263       .  A
O190        C193   1.264       .  A
O190       Cd195   2.458       .  S
C191        C314   1.493       .  S
C191        O200   1.267       .  A
C191        O196   1.268   1_655  A
O192        C198   1.267       .  A
O192       Cd195   2.490       .  S
C193        C298   1.487       .  S
C193        O201   1.265       .  A
C194        C461   1.491       .  S
C194        O199   1.270       .  A
C194        O197   1.263       .  A
Cd195       O202   2.451       .  S
Cd195       O201   2.473       .  S
Cd195       O200   2.470   1_455  S
Cd195       O196   2.454       .  S
Cd195       O199   2.534       .  S
Cd195       O197   2.394       .  S
C198        C285   1.480       .  S
C198        O202   1.262       .  A
O203        C206   1.266       .  A
O203       Cd208   2.471       .  S
C204        C301   1.488       .  S
C204        O213   1.265       .  A
C204        O209   1.268       .  A
O205        C211   1.266       .  A
O205       Cd208   2.437       .  S
C206        C269   1.489       .  S
C206        O214   1.265       .  A
C207        C413   1.467       .  S
C207        O212   1.267       .  A
C207        O210   1.262       .  A
Cd208       O215   2.427       .  S
Cd208       O214   2.450       .  S
Cd208       O213   2.455       .  S
Cd208       O209   2.446       .  S
Cd208       O212   2.493       .  S
Cd208       O210   2.388       .  S
C211        C701   1.461       .  S
C211        O215   1.262       .  A
O216        C219   1.268       .  A
O216       Cd221   2.458       .  S
C217        C349   1.497       .  S
C217        O226   1.264       .  A
C217        O222   1.266   1_565  A
O218        C224   1.269       .  A
O218       Cd221   2.527       .  S
C219        C266   1.489       .  S
C219        O227   1.265       .  A
C220        C637   1.484       .  S
C220        O225   1.268       .  A
C220        O223   1.263       .  A
Cd221       O228   2.404       .  S
Cd221       O227   2.446       .  S
Cd221       O226   2.474   1_545  S
Cd221       O222   2.481       .  S
Cd221       O225   2.477       .  S
Cd221       O223   2.468       .  S
C224        C394   1.491       .  S
C224        O228   1.263       .  A
C229        C230   1.417   1_554  A
C229        C234   1.424       .  A
C229        C282   1.474   1_554  S
C230        C231   1.397   1_556  A
C230        H235   1.083       .  S
C231        C232   1.397       .  A
C231        C240   1.498       .  S
C232        C233   1.403       .  A
C232        H236   1.064       .  S
C233        C234   1.407       .  A
C233        C249   1.509       .  S
C234        H237   1.083       .  S
C238        C239   1.419   1_554  A
C238        C243   1.422       .  A
C238        C330   1.483   1_554  S
C239        C240   1.398   1_556  A
C239        H244   1.083       .  S
C240        C241   1.400       .  A
C241        C242   1.402       .  A
C241        H245   1.067   1_455  S
C242        C243   1.404       .  A
C242        C258   1.502       .  S
C243        H246   1.083       .  S
C247        C248   1.430       .  A
C247        C252   1.425       .  A
C247        C445   1.483       .  S
C248        C249   1.406       .  A
C248        H253   1.083       .  S
C249        C250   1.393       .  A
C250        C251   1.392       .  A
C250        H254   1.058       .  S
C251        C252   1.399       .  A
C251        C260   1.501       .  S
C252        H255   1.081       .  S
C256        C257   1.425       .  A
C256        C261   1.423       .  A
C256        C522   1.485   1_455  S
C257        C258   1.404       .  A
C257        H262   1.083   1_455  S
C258        C259   1.395       .  A
C259        C260   1.399       .  A
C259        H263   1.062       .  S
C260        C261   1.400       .  A
C261        H264   1.083       .  S
C265        C266   1.406       .  A
C265        C270   1.405       .  A
C265        H272   1.084       .  S
C266        C267   1.418       .  A
C267        C268   1.404       .  A
C267        C274   1.509       .  S
C268        C269   1.406       .  A
C268        H273   1.084       .  S
C269        C270   1.417       .  A
C270        C271   1.508       .  S
C271        H275   1.111       .  S
C271        H276   1.110       .  S
C271        H277   1.110       .  S
C274        H278   1.110       .  S
C274        H279   1.110       .  S
C274        H280   1.111       .  S
C281        C282   1.403       .  A
C281        C286   1.402       .  A
C281        H288   1.085       .  S
C282        C283   1.407       .  A
C283        C284   1.406       .  A
C283        C290   1.504   1_455  S
C284        C285   1.408       .  A
C284        H289   1.084   1_455  S
C285        C286   1.414       .  A
C286        C287   1.507       .  S
C287        H291   1.111       .  S
C287        H292   1.109       .  S
C287        H293   1.111       .  S
C290        H294   1.110       .  S
C290        H295   1.110   1_556  S
C290        H296   1.111       .  S
C297        C298   1.406       .  A
C297        C302   1.406       .  A
C297        H304   1.084       .  S
C298        C299   1.416       .  A
C299        C300   1.403       .  A
C299        C306   1.508       .  S
C300        C301   1.405       .  A
C300        H305   1.084       .  S
C301        C302   1.418       .  A
C302        C303   1.509       .  S
C303        H307   1.111       .  S
C303        H308   1.110       .  S
C303        H309   1.110       .  S
C306        H310   1.109       .  S
C306        H311   1.110       .  S
C306        H312   1.111       .  S
C313        C314   1.405       .  A
C313        C318   1.405       .  A
C313        H320   1.084       .  S
C314        C315   1.418       .  A
C315        C316   1.407       .  A
C315        C322   1.508       .  S
C316        C317   1.408       .  A
C316        H321   1.084       .  S
C317        C318   1.420       .  A
C318        C319   1.508       .  S
C319        H323   1.111       .  S
C319        H324   1.110       .  S
C319        H325   1.110       .  S
C322        H326   1.110       .  S
C322        H327   1.110       .  S
C322        H328   1.111       .  S
C329        C330   1.403       .  A
C329        C334   1.405       .  A
C329        H336   1.084       .  S
C330        C331   1.417   1_455  A
C331        C332   1.403       .  A
C331        C338   1.509       .  S
C332        C333   1.402   1_655  A
C332        H337   1.084       .  S
C333        C334   1.417       .  A
C334        C335   1.507       .  S
C335        H339   1.111       .  S
C335        H340   1.111       .  S
C335        H341   1.110       .  S
C338        H342   1.108   1_556  S
C338        H343   1.111       .  S
C338        H344   1.111       .  S
C345        C346   1.406       .  A
C345        C350   1.406       .  A
C345        H352   1.084       .  S
C346        C347   1.419       .  A
C347        C348   1.407       .  A
C347        C354   1.508       .  S
C348        C349   1.407       .  A
C348        H353   1.083       .  S
C349        C350   1.420       .  A
C350        C351   1.508       .  S
C351        H355   1.111       .  S
C351        H356   1.110       .  S
C351        H357   1.110       .  S
C354        H358   1.110       .  S
C354        H359   1.110       .  S
C354        H360   1.111       .  S
C361        C362   1.406       .  A
C361        C366   1.406       .  A
C361        H368   1.084       .  S
C362        C363   1.419       .  A
C363        C364   1.404       .  A
C363        C370   1.509       .  S
C364        C365   1.405       .  A
C364        H369   1.084       .  S
C365        C366   1.419       .  A
C366        C367   1.509       .  S
C367        H371   1.111       .  S
C367        H372   1.110       .  S
C367        H373   1.110       .  S
C370        H374   1.110       .  S
C370        H375   1.110       .  S
C370        H376   1.111       .  S
C377        C378   1.404       .  A
C377        C382   1.405       .  A
C377        H384   1.085       .  S
C378        C379   1.414       .  A
C379        C380   1.403       .  A
C379        C386   1.508       .  S
C380        C381   1.404       .  A
C380        H385   1.084       .  S
C381        C382   1.417       .  A
C382        C383   1.508       .  S
C383        H387   1.111       .  S
C383        H388   1.109       .  S
C383        H389   1.110       .  S
C386        H390   1.111       .  S
C386        H391   1.109       .  S
C386        H392   1.111       .  S
C393        C394   1.403       .  A
C393        C398   1.397       .  A
C393        H400   1.084       .  S
C394        C395   1.418       .  A
C395        C396   1.413       .  A
C395        C402   1.506       .  S
C396        C397   1.407       .  A
C396        H401   1.084       .  S
C397        C398   1.419       .  A
C398        C399   1.512       .  S
C399        H403   1.111       .  S
C399        H404   1.110       .  S
C399        H405   1.111       .  S
C402        H406   1.110       .  S
C402        H407   1.110       .  S
C402        H408   1.111       .  S
C409        C410   1.399       .  A
C409        C414   1.395       .  A
C409        H416   1.085       .  S
C410        C411   1.413       .  A
C411        C412   1.406       .  A
C411        C418   1.506       .  S
C412        C413   1.403       .  A
C412        H417   1.084       .  S
C413        C414   1.412       .  A
C414        C415   1.510       .  S
C415        H419   1.111       .  S
C415        H420   1.108       .  S
C415        H421   1.110       .  S
C418        H422   1.110       .  S
C418        H423   1.110       .  S
C418        H424   1.111       .  S
C425        C426   1.406       .  A
C425        C430   1.406       .  A
C425        H432   1.084       .  S
C426        C427   1.419       .  A
C427        C428   1.404       .  A
C427        C434   1.509       .  S
C428        C429   1.405       .  A
C428        H433   1.084       .  S
C429        C430   1.420       .  A
C430        C431   1.509       .  S
C431        H435   1.111       .  S
C431        H436   1.110       .  S
C431        H437   1.110       .  S
C434        H438   1.110       .  S
C434        H439   1.110       .  S
C434        H440   1.111       .  S
C441        C442   1.408       .  A
C441        C446   1.410       .  A
C441        H448   1.084       .  S
C442        C443   1.416       .  A
C443        C444   1.401       .  A
C443        C450   1.509       .  S
C444        C445   1.403       .  A
C444        H449   1.085       .  S
C445        C446   1.413       .  A
C446        C447   1.506       .  S
C447        H451   1.111       .  S
C447        H452   1.107       .  S
C447        H453   1.110       .  S
C450        H454   1.111   1_455  S
C450        H455   1.109       .  S
C450        H456   1.111   1_455  S
C457        C458   1.409       .  A
C457        C462   1.413       .  A
C457        H464   1.084       .  S
C458        C459   1.420       .  A
C459        C460   1.397       .  A
C459        C466   1.512       .  S
C460        C461   1.403       .  A
C460        H465   1.084       .  S
C461        C462   1.417       .  A
C462        C463   1.505       .  S
C463        H467   1.111       .  S
C463        H468   1.111       .  S
C463        H469   1.110       .  S
C466        H470   1.110       .  S
C466        H471   1.110       .  S
C466        H472   1.111       .  S
C473        C474   1.406       .  A
C473        C478   1.404       .  A
C473        H480   1.084       .  S
C474        C475   1.419       .  A
C475        C476   1.405       .  A
C475        C482   1.509       .  S
C476        C477   1.407       .  A
C476        H481   1.084       .  S
C477        C478   1.418       .  A
C478        C479   1.508       .  S
C479        H483   1.111       .  S
C479        H484   1.110       .  S
C479        H485   1.110       .  S
C482        H486   1.110       .  S
C482        H487   1.110       .  S
C482        H488   1.111       .  S
C489        C490   1.404       .  A
C489        C494   1.397       .  A
C489        H496   1.084       .  S
C490        C491   1.418       .  A
C491        C492   1.413       .  A
C491        C498   1.506       .  S
C492        C493   1.407       .  A
C492        H497   1.084       .  S
C493        C494   1.416       .  A
C494        C495   1.511       .  S
C495        H499   1.111       .  S
C495        H500   1.110       .  S
C495        H501   1.109       .  S
C498        H502   1.110       .  S
C498        H503   1.110   1_545  S
C498        H504   1.111   1_545  S
C505        C506   1.407       .  A
C505        C510   1.408       .  A
C505        H512   1.084       .  S
C506        C507   1.419       .  A
C507        C508   1.405       .  A
C507        C514   1.509       .  S
C508        C509   1.407       .  A
C508        H513   1.084       .  S
C509        C510   1.419       .  A
C510        C511   1.507       .  S
C511        H515   1.111       .  S
C511        H516   1.110       .  S
C511        H517   1.110       .  S
C514        H518   1.110       .  S
C514        H519   1.111       .  S
C514        H520   1.111       .  S
C521        C522   1.404       .  A
C521        C526   1.409       .  A
C521        H528   1.084       .  S
C522        C523   1.418   1_655  A
C523        C524   1.400       .  A
C523        C530   1.511       .  S
C524        C525   1.403       .  A
C524        H529   1.084       .  S
C525        C526   1.419   1_455  A
C526        C527   1.506       .  S
C527        H531   1.111       .  S
C527        H532   1.110       .  S
C527        H533   1.110       .  S
C530        H534   1.108       .  S
C530        H535   1.110       .  S
C530        H536   1.111       .  S
C537        C538   1.406       .  A
C537        C542   1.407       .  A
C537        H544   1.084       .  S
C538        C539   1.417   1_455  A
C539        C540   1.400       .  A
C539        C546   1.510       .  S
C540        C541   1.400   1_655  A
C540        H545   1.084       .  S
C541        C542   1.412       .  A
C542        C543   1.506       .  S
C543        H547   1.111       .  S
C543        H548   1.110       .  S
C543        H549   1.111       .  S
C546        H550   1.111       .  S
C546        H551   1.109       .  S
C546        H552   1.111       .  S
C553        C554   1.406       .  A
C553        C558   1.405       .  A
C553        H560   1.083       .  S
C554        C555   1.420       .  A
C555        C556   1.408       .  A
C555        C562   1.508       .  S
C556        C557   1.407       .  A
C556        H561   1.084       .  S
C557        C558   1.420       .  A
C558        C559   1.509       .  S
C559        H563   1.111       .  S
C559        H564   1.110       .  S
C559        H565   1.110       .  S
C562        H566   1.110       .  S
C562        H567   1.110       .  S
C562        H568   1.111       .  S
C569        C570   1.404       .  A
C569        C574   1.408       .  A
C569        H576   1.084       .  S
C570        C571   1.412       .  A
C571        C572   1.396       .  A
C571        C578   1.510       .  S
C572        C573   1.401       .  A
C572        H577   1.085       .  S
C573        C574   1.413       .  A
C574        C575   1.505       .  S
C575        H579   1.111       .  S
C575        H580   1.110       .  S
C575        H581   1.110       .  S
C578        H582   1.108       .  S
C578        H583   1.110       .  S
C578        H584   1.111       .  S
C585        C586   1.406       .  A
C585        C590   1.406       .  A
C585        H592   1.084       .  S
C586        C587   1.417       .  A
C587        C588   1.403       .  A
C587        C594   1.509       .  S
C588        C589   1.406       .  A
C588        H593   1.084       .  S
C589        C590   1.419       .  A
C590        C591   1.508       .  S
C591        H595   1.111       .  S
C591        H596   1.110       .  S
C591        H597   1.110       .  S
C594        H598   1.110       .  S
C594        H599   1.110       .  S
C594        H600   1.111       .  S
C601        C602   1.407       .  A
C601        C606   1.406       .  A
C601        H608   1.084       .  S
C602        C603   1.420       .  A
C603        C604   1.403       .  A
C603        C610   1.509       .  S
C604        C605   1.404       .  A
C604        H609   1.084       .  S
C605        C606   1.419       .  A
C606        C607   1.508       .  S
C607        H611   1.111       .  S
C607        H612   1.110       .  S
C607        H613   1.110       .  S
C610        H614   1.110       .  S
C610        H615   1.110       .  S
C610        H616   1.111       .  S
C617        C618   1.403       .  A
C617        C622   1.411       .  A
C617        H624   1.084   1_545  S
C618        C619   1.422       .  A
C619        C620   1.400       .  A
C619        C626   1.512       .  S
C620        C621   1.399       .  A
C620        H625   1.084       .  S
C621        C622   1.420       .  A
C622        C623   1.506   1_545  S
C623        H627   1.111       .  S
C623        H628   1.110       .  S
C623        H629   1.110       .  S
C626        H630   1.110       .  S
C626        H631   1.108       .  S
C626        H632   1.111       .  S
C633        C634   1.403       .  A
C633        C638   1.411       .  A
C633        H640   1.084       .  S
C634        C635   1.423       .  A
C635        C636   1.400       .  A
C635        C642   1.512       .  S
C636        C637   1.398       .  A
C636        H641   1.084       .  S
C637        C638   1.419       .  A
C638        C639   1.507       .  S
C639        H643   1.111       .  S
C639        H644   1.110       .  S
C639        H645   1.110       .  S
C642        H646   1.110   1_545  S
C642        H647   1.108       .  S
C642        H648   1.111   1_545  S
C649        C650   1.408       .  A
C649        C654   1.402       .  A
C649        H656   1.085       .  S
C650        C651   1.414       .  A
C651        C652   1.409       .  A
C651        C658   1.506   1_545  S
C652        C653   1.408       .  A
C652        H657   1.084   1_545  S
C653        C654   1.413       .  A
C654        C655   1.508       .  S
C655        H659   1.111       .  S
C655        H660   1.110       .  S
C655        H661   1.110       .  S
C658        H662   1.110       .  S
C658        H663   1.106       .  S
C658        H664   1.111       .  S
C665        C666   1.403       .  A
C665        C670   1.409       .  A
C665        H672   1.084       .  S
C666        C667   1.422       .  A
C667        C668   1.402       .  A
C667        C674   1.511       .  S
C668        C669   1.400       .  A
C668        H673   1.084       .  S
C669        C670   1.420       .  A
C670        C671   1.507       .  S
C671        H675   1.111       .  S
C671        H676   1.110       .  S
C671        H677   1.110       .  S
C674        H678   1.110   1_545  S
C674        H679   1.108       .  S
C674        H680   1.111   1_545  S
C681        C682   1.409       .  A
C681        C686   1.405       .  A
C681        H688   1.084       .  S
C682        C683   1.410       .  A
C683        C684   1.396       .  A
C683        C690   1.509       .  S
C684        C685   1.405       .  A
C684        H689   1.085       .  S
C685        C686   1.405       .  A
C686        C687   1.504       .  S
C687        H691   1.111       .  S
C687        H692   1.110       .  S
C687        H693   1.109   1_556  S
C690        H694   1.109       .  S
C690        H695   1.111       .  S
C690        H696   1.111       .  S
C697        C698   1.399       .  A
C697        C702   1.403       .  A
C697        H704   1.084       .  S
C698        C699   1.413       .  A
C699        C700   1.395       .  A
C699        C706   1.509       .  S
C700        C701   1.397       .  A
C700        H705   1.085       .  S
C701        C702   1.413       .  A
C702        C703   1.507       .  S
C703        H707   1.111       .  S
C703        H708   1.110       .  S
C703        H709   1.111       .  S
C706        H710   1.111       .  S
C706        H711   1.109       .  S
C706        H712   1.111       .  S
C713        C714   1.401       .  A
C713        C718   1.404       .  A
C713        H720   1.084       .  S
C714        C715   1.414       .  A
C715        C716   1.393       .  A
C715        C722   1.510       .  S
C716        C717   1.395       .  A
C716        H721   1.085       .  S
C717        C718   1.412       .  A
C718        C719   1.506       .  S
C719        H723   1.111       .  S
C719        H724   1.110       .  S
C719        H725   1.111       .  S
C722        H726   1.111       .  S
C722        H727   1.109       .  S
C722        H728   1.111       .  S
C729        C730   1.406       .  A
C729        C734   1.394       .  A
C729        H736   1.085       .  S
C730        C731   1.408       .  A
C731        C732   1.407       .  A
C731        C738   1.505       .  S
C732        C733   1.409       .  A
C732        H737   1.084       .  S
C733        C734   1.411       .  A
C734        C735   1.509       .  S
C735        H739   1.111       .  S
C735        H740   1.109       .  S
C735        H741   1.110       .  S
C738        H742   1.110       .  S
C738        H743   1.108       .  S
C738        H744   1.111       .  S
