geometry optimzed in LAMMPS
_audit_creation_date              2020-12-01 
_audit_creation_method            'lammps2cif' 
_symmetry_space_group_name_H-M    'P1' 
_symmetry_Int_Tables_number       1 
_symmetry_cell_setting            triclinic 
loop_ 
_symmetry_equiv_pos_as_xyz 
  x,y,z 
_cell_length_a                    34.89476555 
_cell_length_b                    34.84639049368471 
_cell_length_c                    34.87059865504379 
_cell_angle_alpha                 89.79761463503314 
_cell_angle_beta                  89.8716856259561 
_cell_angle_gamma                 89.71768676066645 
loop_ 
_atom_site_label 
_atom_site_type_symbol 
_atom_site_fract_x 
_atom_site_fract_y 
_atom_site_fract_z 
_atom_site_charge 
O1          O  0.21363437  0.62969687  0.49489812    -0.81000
C2          C  0.11292307  0.56886593  0.60556085     0.98400
O3          O  0.13083735  0.60048277  0.61041580    -0.70100
O4          O  0.20482618  0.58586098  0.59694400    -0.73700
Al5        Al  0.17156095  0.62386144  0.57739900     1.49000
C6          C  0.23140699  0.56787069  0.57999546     0.93600
O7          O  0.18463154  0.52726586  0.50828818    -0.79900
O8          O  0.10979470  0.60969113  0.48441108    -0.73500
Al9        Al  0.19666975  0.58015335  0.50444622     1.90100
O10         O  0.12309431  0.53468970  0.50092140    -0.72500
O11         O  0.08931683  0.62591099  0.55284847    -0.72400
O12         O  0.11322015  0.55267082  0.57346305    -0.78000
O13         O  0.13748643  0.66509601  0.56103123    -0.76200
O14         O  0.16069576  0.59541999  0.53674484    -1.12400
O15         O  0.21547224  0.65177153  0.55340031    -0.71600
C16         C  0.22710964  0.65261753  0.51871384     0.99200
C17         C  0.15297546  0.51441291  0.49748752     0.95600
Al18       Al  0.11272385  0.58168384  0.52887627     1.55600
O19         O  0.23461890  0.56976401  0.54375012    -0.76200
C20         C  0.10175346  0.65982443  0.55650343     0.99700
C21         C  0.13180795  0.60378907  0.45674598     0.94600
O22         O  0.16456934  0.58804192  0.46035817    -0.81500
O23         O  0.11038021  0.51962829  0.25905787    -0.81000
C24         C  0.17579112  0.63075476  0.16050139     0.98400
O25         O  0.14527110  0.61201690  0.15218970    -0.70100
O26         O  0.15897051  0.53664275  0.16055088    -0.73700
Al27       Al  0.11989027  0.56843565  0.18042814     1.49000
C28         C  0.17580722  0.50923963  0.17736440     0.93600
O29         O  0.21208871  0.55267398  0.25464357    -0.79900
O30         O  0.12521107  0.62221298  0.27841052    -0.73500
Al31       Al  0.15953785  0.53877366  0.25409555     1.90100
O32         O  0.20183114  0.61309435  0.26695175    -0.72500
O33         O  0.11367849  0.64892727  0.21108619    -0.72400
O34         O  0.18907359  0.62959837  0.19399178    -0.78000
O35         O  0.07724899  0.60024243  0.19666337    -0.76200
O36         O  0.14545677  0.57678739  0.22349679    -1.12400
O37         O  0.09102559  0.52236409  0.19960065    -0.71600
C38         C  0.08884789  0.50784242  0.23322803     0.99200
C39         C  0.22329719  0.58384406  0.26841536     0.95600
Al40       Al  0.15673413  0.62454270  0.23636343     1.55600
O41         O  0.17319250  0.50461025  0.21332131    -0.76200
C42         C  0.08063969  0.63556735  0.20450671     0.99700
C43         C  0.12825847  0.59737983  0.30421051     0.94600
O44         O  0.14719768  0.56648497  0.29971096    -0.81500
O45         O  0.25898784  0.10182989  0.53940805    -0.81000
C46         C  0.15488776  0.15641264  0.64927530     0.98400
O47         O  0.14829829  0.12657032  0.62913412    -0.70100
O48         O  0.15817264  0.14523557  0.55570518    -0.73700
Al49       Al  0.17867152  0.10488286  0.58615237     1.49000
C50         C  0.17474346  0.16411665  0.52955459     0.93600
O51         O  0.24775803  0.20107436  0.57798458    -0.79900
O52         O  0.27594181  0.11168005  0.64297329    -0.73500
Al53       Al  0.25095659  0.14954051  0.56099748     1.90100
O54         O  0.26021757  0.18789172  0.63776372    -0.72500
O55         O  0.20800243  0.09588731  0.66714518    -0.72400
O56         O  0.18794219  0.17051712  0.65107505    -0.78000
O57         O  0.19485531  0.06089971  0.61691524    -0.76200
O58         O  0.22045166  0.13154877  0.59727403    -1.12400
O59         O  0.20044349  0.07959066  0.53974394    -0.71600
C60         C  0.23420655  0.08019934  0.52569374     0.99200
C61         C  0.26112055  0.21092568  0.60976827     0.95600
Al62       Al  0.23179825  0.14084604  0.64581186     1.55600
O63         O  0.21079914  0.16289300  0.52611599    -0.76200
C64         C  0.20138486  0.06336738  0.65267680     0.99700
C65         C  0.30194953  0.11835150  0.61905426     0.94600
O66         O  0.29651326  0.13846970  0.58913853    -0.81500
O67         O  0.49896473  0.20230389  0.64662056    -0.81000
C68         C  0.60466439  0.09761268  0.58468695     0.98400
O69         O  0.61139886  0.11614618  0.61552623    -0.70100
O70         O  0.59886900  0.18927817  0.59802295    -0.73700
Al71       Al  0.58033716  0.15840901  0.63848499     1.49000
C72         C  0.58121726  0.21616279  0.58115637     0.93600
O73         O  0.50829967  0.16934713  0.54525720    -0.79900
O74         O  0.48358166  0.09925339  0.63105662    -0.73500
Al75       Al  0.50604225  0.18353916  0.59727989     1.90100
O76         O  0.50006461  0.10796216  0.55496350    -0.72500
O77         O  0.55212253  0.07718666  0.64679648    -0.72400
O78         O  0.57117889  0.09509594  0.57205300    -0.78000
O79         O  0.56497261  0.12720220  0.68228450    -0.76200
O80         O  0.53801388  0.14718418  0.61269028    -1.12400
O81         O  0.55890530  0.20453543  0.66459873    -0.71600
C82         C  0.52470497  0.21743518  0.66624062     0.99200
C83         C  0.49795811  0.13711837  0.53343854     0.95600
Al84       Al  0.52784097  0.09873921  0.60206346     1.55600
O85         O  0.54527347  0.21998256  0.58468913    -0.76200
C86         C  0.55749888  0.09165475  0.67960845     0.99700
C87         C  0.45657125  0.12185341  0.62392064     0.94600
O88         O  0.46133581  0.15359561  0.60677435    -0.81500
O89         O  0.63452069  0.48823499  0.22670633    -0.81000
C90         C  0.57833881  0.58472050  0.11201385     0.98400
O91         O  0.60867153  0.59331573  0.13085199    -0.70100
O92         O  0.59737975  0.58744714  0.20600022    -0.73700
Al93       Al  0.63465473  0.56475788  0.17297194     1.49000
C94         C  0.57669364  0.57233235  0.23159565     0.93600
O95         O  0.53721231  0.49809953  0.18486676    -0.79900
O96         O  0.62767738  0.46540181  0.12322730    -0.73500
Al97       Al  0.58817738  0.49499391  0.20302037     1.90100
O98         O  0.55144104  0.47866671  0.12751776    -0.72500
O99         O  0.63936938  0.53251785  0.09267877    -0.72400
O100        O  0.56631209  0.55072479  0.11064500    -0.78000
O101        O  0.67675621  0.54766897  0.13989901    -0.76200
O102        O  0.60703674  0.52291234  0.16511390    -1.12400
O103        O  0.66355107  0.54326851  0.21719163    -0.71600
C104        C  0.66080784  0.51105107  0.23446270     0.99200
C105        C  0.52792339  0.48107002  0.15483885     0.95600
Al106      Al  0.59704660  0.50833152  0.11749318     1.55600
O107        O  0.57477211  0.53645773  0.23475768    -0.76200
C108        C  0.67249177  0.53987255  0.10468515     0.99700
C109        C  0.62099626  0.44075245  0.14877785     0.94600
O110        O  0.59988754  0.44775459  0.17775042    -0.81500
O111        O  0.54355323  0.24658113  0.11052723    -0.81000
C112        C  0.64342956  0.13492558  0.17323311     0.98400
O113        O  0.62514596  0.13013891  0.14180353    -0.70100
O114        O  0.55093845  0.14450172  0.15681914    -0.73700
Al115      Al  0.58409041  0.16338100  0.11850250     1.49000
C116        C  0.52357764  0.16229932  0.17270662     0.93600
O117        O  0.56901973  0.23292470  0.21420230    -0.79900
O118        O  0.64518189  0.25832602  0.13402744    -0.73500
Al119      Al  0.55846224  0.23694061  0.16095304     1.90100
O120        O  0.63118146  0.23805669  0.20862721    -0.72500
O121        O  0.66608744  0.18958897  0.11619239    -0.72400
O122        O  0.64332837  0.16712698  0.18912236    -0.78000
O123        O  0.61815662  0.17910244  0.07708554    -0.76200
O124        O  0.59485993  0.20435307  0.14669096    -1.12400
O125        O  0.53948781  0.18739179  0.09069851    -0.71600
C126        C  0.52817119  0.22230908  0.08930514     0.99200
C127        C  0.60094656  0.24139165  0.22837541     0.95600
Al128      Al  0.64261888  0.21238344  0.16086711     1.55600
O129        O  0.52029663  0.19835572  0.16930220    -0.76200
C130        C  0.65384885  0.18417110  0.08244034     0.99700
C131        C  0.62278625  0.28555261  0.14115538     0.94600
O132        O  0.58987547  0.28071435  0.15555719    -0.81500
O133        O  0.71417280  0.85157370  0.51185896    -0.81000
C134        C  0.61577184  0.91389307  0.40068689     0.98400
O135        O  0.63245760  0.88140494  0.39665111    -0.70100
O136        O  0.70656329  0.89344278  0.40917829    -0.73700
Al137      Al  0.67212265  0.85727742  0.42975118     1.49000
C138        C  0.73381059  0.91014515  0.42596658     0.93600
O139        O  0.68839336  0.95469804  0.49725225    -0.79900
O140        O  0.61111438  0.87656052  0.52375377    -0.73500
Al141      Al  0.69872692  0.90147856  0.50173660     1.90100
O142        O  0.62650558  0.95020714  0.50392435    -0.72500
O143        O  0.58986586  0.85923744  0.45523164    -0.72400
O144        O  0.61604962  0.93071784  0.43245361    -0.78000
O145        O  0.63629088  0.81754923  0.44680689    -0.76200
O146        O  0.66216962  0.88703640  0.47000650    -1.12400
O147        O  0.71577236  0.82877632  0.45367932    -0.71600
C148        C  0.72840097  0.82909771  0.48794138     0.99200
C149        C  0.65691576  0.96936350  0.50664717     0.95600
Al150      Al  0.61471189  0.90300183  0.47793297     1.55600
O151        O  0.73639820  0.90940417  0.46220685    -0.76200
C152        C  0.60063694  0.82473093  0.45087585     0.99700
C153        C  0.63455771  0.88035417  0.55063464     0.94600
O154        O  0.66727887  0.89546117  0.54613068    -0.81500
O155        O  0.61013864  0.95653521  0.75113144    -0.81000
C156        C  0.67706345  0.84913538  0.85168246     0.98400
O157        O  0.64566586  0.86680108  0.85874352    -0.70100
O158        O  0.65964444  0.94130571  0.84986686    -0.73700
Al159      Al  0.62116049  0.90960001  0.82991184     1.49000
C160        C  0.67506681  0.96970566  0.83353320     0.93600
O161        O  0.71377555  0.92847081  0.75627021    -0.79900
O162        O  0.63248302  0.85479413  0.73076065    -0.73500
Al163      Al  0.66052752  0.93999049  0.75645471     1.90100
O164        O  0.70773815  0.86684436  0.74730659    -0.72500
O165        O  0.61776344  0.82929276  0.79838046    -0.72400
O166        O  0.69166221  0.85045147  0.81876406    -0.78000
O167        O  0.57958952  0.87718286  0.81321603    -0.76200
O168        O  0.64773862  0.90154577  0.78702369    -1.12400
O169        O  0.59247298  0.95551387  0.81114617    -0.71600
C170        C  0.58981069  0.96962532  0.77754404     0.99200
C171        C  0.72754556  0.89699998  0.74538054     0.95600
Al172      Al  0.66144183  0.85418421  0.77496554     1.55600
O173        O  0.67172296  0.97485198  0.79764542    -0.76200
C174        C  0.58434106  0.84183995  0.80560063     0.99700
C175        C  0.63499706  0.87990377  0.70512873     0.94600
O176        O  0.65102482  0.91196947  0.71063493    -0.81500
O177        O  0.24620568  0.88142750  0.04161537    -0.81000
C178        C  0.35558996  0.81935573  0.14235484     0.98400
O179        O  0.36110514  0.85120562  0.12489898    -0.70100
O180        O  0.34803103  0.83800540  0.05129692    -0.73700
Al181      Al  0.32830115  0.87563528  0.08496292     1.49000
C182        C  0.33101865  0.82048095  0.02475080     0.93600
O183        O  0.25892062  0.77843789  0.07342732    -0.79900
O184        O  0.23276625  0.86242274  0.14576677    -0.73500
Al185      Al  0.25531034  0.83166125  0.06000511     1.90100
O186        O  0.25134961  0.78700468  0.13485037    -0.72500
O187        O  0.30172588  0.87894226  0.16742275    -0.72400
O188        O  0.32246817  0.80589637  0.14570688    -0.78000
O189        O  0.31265237  0.91734265  0.11903109    -0.76200
O190        O  0.28717193  0.84748873  0.09607686    -1.12400
O191        O  0.30481451  0.90348942  0.04105472    -0.71600
C192        C  0.27082823  0.90358706  0.02779843     0.99200
C193        C  0.24889355  0.76574386  0.10572330     0.95600
Al194      Al  0.27815083  0.83466099  0.14439428     1.55600
O195        O  0.29474709  0.82126742  0.02256830    -0.76200
C196        C  0.30725911  0.91256484  0.15480519     0.99700
C197        C  0.20559854  0.85474253  0.12370468     0.94600
O198        O  0.21064064  0.83916087  0.09121611    -0.81500
O199        O  0.00509985  0.76560982  0.14433545    -0.81000
C200        C  0.90579112  0.87657800  0.08282801     0.98400
O201        O  0.89812350  0.85863871  0.11403327    -0.70100
O202        O  0.90596221  0.78410774  0.10137373    -0.73700
Al203      Al  0.92707743  0.81620473  0.13924322     1.49000
C204        C  0.92163814  0.75729225  0.08267264     0.93600
O205        O  0.99845520  0.80162171  0.04357133    -0.79900
O206        O  0.02543346  0.86942875  0.13045547    -0.73500
Al207      Al  0.99911428  0.78644304  0.09599720     1.90100
O208        O  0.01175327  0.86149963  0.05427254    -0.72500
O209        O  0.95763250  0.89668922  0.14300456    -0.72400
O210        O  0.93928990  0.87679244  0.06936606    -0.78000
O211        O  0.94379580  0.84891875  0.18113373    -0.76200
O212        O  0.96942456  0.82442075  0.11197734    -1.12400
O213        O  0.94719263  0.77096763  0.16796636    -0.71600
C214        C  0.98020590  0.75518292  0.16780189     0.99200
C215        C  0.01224519  0.83284127  0.03232585     0.95600
Al216      Al  0.98222754  0.87213181  0.10015565     1.55600
O217        O  0.95764033  0.75296774  0.08299843    -0.76200
C218        C  0.95090968  0.88432431  0.17643993     0.99700
C219        C  0.05097204  0.84428884  0.12632240     0.94600
O220        O  0.04535248  0.81359556  0.10751914    -0.81500
O221        O  0.37335873  0.98938631  0.28496016    -0.81000
C222        C  0.42687942  0.08741683  0.39948466     0.98400
O223        O  0.39733354  0.09598312  0.37932084    -0.70100
O224        O  0.41054923  0.09060356  0.30401437    -0.73700
Al225      Al  0.37310059  0.06742698  0.33647214     1.49000
C226        C  0.42891442  0.07520800  0.27692516     0.93600
O227        O  0.47154988  0.00313857  0.32435127    -0.79900
O228        O  0.38253832  0.96619268  0.38598009    -0.73500
Al229      Al  0.42040630  0.99803365  0.30700878     1.90100
O230        O  0.45869107  0.98333363  0.38228702    -0.72500
O231        O  0.36634127  0.03226992  0.41669443    -0.72400
O232        O  0.43949092  0.05358079  0.40124928    -0.78000
O233        O  0.33094871  0.05048530  0.36846968    -0.76200
O234        O  0.40112812  0.02554992  0.34502145    -1.12400
O235        O  0.34539959  0.04566526  0.29132796    -0.71600
C236        C  0.34777339  0.01270890  0.27538274     0.99200
C237        C  0.48191350  0.98664751  0.35462854     0.95600
Al238      Al  0.41094202  0.01034989  0.39270611     1.55600
O239        O  0.43042470  0.03933583  0.27410517    -0.76200
C240        C  0.33402666  0.04200198  0.40366270     0.99700
C241        C  0.39033688  0.94255686  0.35994213     0.94600
O242        O  0.41250976  0.95050025  0.33226703    -0.81500
O243        O  0.45876212  0.75172646  0.38626779    -0.81000
C244        C  0.35923482  0.63568215  0.33408820     0.98400
O245        O  0.37762687  0.63405337  0.36569538    -0.70100
O246        O  0.45165784  0.64598038  0.34825657    -0.73700
Al247      Al  0.41856808  0.66850505  0.38511531     1.49000
C248        C  0.47845527  0.66263791  0.33033340     0.93600
O249        O  0.43441515  0.72956043  0.28419131    -0.79900
O250        O  0.35665745  0.76147321  0.35970874    -0.73500
Al251      Al  0.44414464  0.73800718  0.33668296     1.90100
O252        O  0.37222107  0.73560035  0.28761811    -0.72500
O253        O  0.33631785  0.69522591  0.38451656    -0.72400
O254        O  0.36021276  0.66560074  0.31395872    -0.78000
O255        O  0.38437731  0.68826244  0.42462052    -0.76200
O256        O  0.40772098  0.70693491  0.35323947    -1.12400
O257        O  0.46297454  0.69417412  0.41072681    -0.71600
C258        C  0.47385656  0.72908189  0.40973825     0.99200
C259        C  0.40313846  0.73817680  0.26876561     0.95600
Al260      Al  0.36007001  0.71362200  0.33752962     1.55600
O261        O  0.48224791  0.69869975  0.33190486    -0.76200
C262        C  0.34858449  0.69266713  0.41875438     0.99700
C263        C  0.37979250  0.78788640  0.35274280     0.94600
O264        O  0.41256102  0.78219060  0.33828205    -0.81500
O265        O  0.50826106  0.71059830  0.86844895    -0.81000
C266        C  0.40473872  0.60206621  0.92601180     0.98400
O267        O  0.39815172  0.62097671  0.89513683    -0.70100
O268        O  0.40744974  0.69552372  0.90743078    -0.73700
Al269      Al  0.42893726  0.66196264  0.87030538     1.49000
C270        C  0.42308187  0.72153107  0.92689688     0.93600
O271        O  0.49683403  0.67326047  0.96789802    -0.79900
O272        O  0.52637637  0.60607233  0.88129840    -0.73500
Al273      Al  0.50002618  0.68920229  0.91612530     1.90100
O274        O  0.50933118  0.61305896  0.95679498    -0.72500
O275        O  0.45840922  0.58010299  0.86658181    -0.72400
O276        O  0.43798726  0.59960604  0.93964352    -0.78000
O277        O  0.44530409  0.62823683  0.82871602    -0.76200
O278        O  0.47020682  0.65216267  0.89860232    -1.12400
O279        O  0.45164309  0.70588407  0.84187030    -0.71600
C280        C  0.48477752  0.72102151  0.84355462     0.99200
C281        C  0.50879101  0.64125835  0.97921001     0.95600
Al282      Al  0.48187733  0.60384455  0.91010743     1.55600
O283        O  0.45920342  0.72396404  0.92818917    -0.76200
C284        C  0.45138563  0.59256862  0.83332681     0.99700
C285        C  0.55198552  0.63061845  0.88690529     0.94600
O286        O  0.54608203  0.66103077  0.90605652    -0.81500
O287        O  0.74653309  0.59983936  0.96657670    -0.81000
C288        C  0.85645968  0.65986337  0.86512722     0.98400
O289        O  0.86186020  0.62853106  0.88363454    -0.70100
O290        O  0.84827771  0.64351502  0.95729246    -0.73700
Al291      Al  0.82909750  0.60529191  0.92441991     1.49000
C292        C  0.83062010  0.66087897  0.98378001     0.93600
O293        O  0.75952671  0.70181994  0.93540266    -0.79900
O294        O  0.73413247  0.61860580  0.86278908    -0.73500
Al295      Al  0.75564995  0.64920984  0.94863621     1.90100
O296        O  0.75221194  0.69363706  0.87387978    -0.72500
O297        O  0.80296638  0.60108409  0.84193257    -0.72400
O298        O  0.82366516  0.67459945  0.86316417    -0.78000
O299        O  0.81373543  0.56342757  0.89121829    -0.76200
O300        O  0.78790556  0.63330574  0.91280376    -1.12400
O301        O  0.80536947  0.57805364  0.96887746    -0.71600
C302        C  0.77086309  0.57767697  0.98097723     0.99200
C303        C  0.74956071  0.71456088  0.90324797     0.95600
Al304      Al  0.77928923  0.64599532  0.86439267     1.55600
O305        O  0.79446525  0.65949677  0.98624599    -0.76200
C306        C  0.80834060  0.56767948  0.85542117     0.99700
C307        C  0.70691833  0.62535261  0.88526550     0.94600
O308        O  0.71144226  0.64166198  0.91738654    -0.81500
O309        O  0.29087942  0.35801628  0.99819059    -0.81000
C310        C  0.39395954  0.41075284  0.10998304     0.98400
O311        O  0.37626795  0.37893477  0.11267247    -0.70100
O312        O  0.30269838  0.39534872  0.10191340    -0.73700
Al313      Al  0.33546327  0.35861886  0.07942520     1.49000
C314        C  0.27598463  0.41416397  0.08615942     0.93600
O315        O  0.32168511  0.45972162  0.01505132    -0.79900
O316        O  0.39640112  0.38042737  0.98523085    -0.73500
Al317      Al  0.30925805  0.40698148  0.00941166     1.90100
O318        O  0.38335935  0.45309875  0.00835584    -0.72500
O319        O  0.41751715  0.35766411  0.05236430    -0.72400
O320        O  0.39376530  0.42947584  0.07918105    -0.78000
O321        O  0.36916882  0.31839842  0.06017422    -0.76200
O322        O  0.34585854  0.38966607  0.04003855    -1.12400
O323        O  0.29104485  0.33281329  0.05560663    -0.71600
C324        C  0.27767824  0.33433745  0.02175432     0.99200
C325        C  0.35348264  0.47334339  0.00546135     0.95600
Al326      Al  0.39383596  0.40414055  0.03231265     1.55600
O327        O  0.27273022  0.41523717  0.04995079    -0.76200
C328        C  0.40494308  0.32364151  0.05539348     0.99700
C329        C  0.37295824  0.38657508  0.95873315     0.94600
O330        O  0.34007487  0.40131359  0.96429615    -0.81500
O331        O  0.38460589  0.46010909  0.75736954    -0.81000
C332        C  0.33571051  0.34458531  0.65719248     0.98400
O333        O  0.36491509  0.36559598  0.64970611    -0.70100
O334        O  0.34893355  0.44074945  0.65627902    -0.73700
Al335      Al  0.38742193  0.40883786  0.67926212     1.49000
C336        C  0.32787207  0.46602469  0.67161059     0.93600
O337        O  0.28822707  0.41609210  0.74497820    -0.79900
O338        O  0.37934190  0.35556120  0.77846773    -0.73500
Al339      Al  0.33879832  0.43545727  0.74904669     1.90100
O340        O  0.30352630  0.35813184  0.76241491    -0.72500
O341        O  0.39524501  0.32802583  0.71102777    -0.72400
O342        O  0.32154172  0.34307008  0.69039725    -0.78000
O343        O  0.43059656  0.37735878  0.69642728    -0.76200
O344        O  0.35931297  0.39872627  0.72066908    -1.12400
O345        O  0.41351357  0.45439924  0.70171791    -0.71600
C346        C  0.41010674  0.47043466  0.73446103     0.99200
C347        C  0.27937597  0.38506773  0.76080238     0.95600
Al348      Al  0.35061354  0.35026598  0.73413685     1.55600
O349        O  0.32562117  0.46832375  0.70760837    -0.76200
C350        C  0.42778098  0.34176889  0.70361436     0.99700
C351        C  0.37159294  0.38068226  0.80313382     0.94600
O352        O  0.34994446  0.40927640  0.79605841    -0.81500
O353        O  0.03578212  0.23342529  0.89182084    -0.81000
C354        C  0.14638197  0.33588410  0.83534502     0.98400
O355        O  0.12698236  0.34242912  0.86583877    -0.70100
O356        O  0.05273463  0.33412854  0.85037746    -0.73700
Al357      Al  0.08466309  0.31251581  0.88918669     1.49000
C358        C  0.02686695  0.31823582  0.83076639     0.93600
O359        O  0.07312520  0.24416770  0.79224163    -0.79900
O360        O  0.13992772  0.21460009  0.87917017    -0.73500
Al361      Al  0.05717213  0.24132857  0.84405246     1.90100
O362        O  0.13294083  0.23059459  0.80348372    -0.72500
O363        O  0.16574797  0.28227783  0.89381244    -0.72400
O364        O  0.14703150  0.30306351  0.82036101    -0.78000
O365        O  0.11754676  0.29551814  0.93167483    -0.76200
O366        O  0.09432086  0.27092500  0.86140168    -1.12400
O367        O  0.03913101  0.29096121  0.91647421    -0.71600
C368        C  0.02394541  0.25774663  0.91520023     0.99200
C369        C  0.10444340  0.23030868  0.78138099     0.95600
Al370      Al  0.14242032  0.25888081  0.85006308     1.55600
O371        O  0.02304848  0.28223913  0.83151309    -0.76200
C372        C  0.15326626  0.28924764  0.92709146     0.99700
C373        C  0.11524265  0.18921475  0.87338831     0.94600
O374        O  0.08481947  0.19536986  0.85444495    -0.81500
O375        O  0.14299641  0.98996440  0.78950241    -0.81000
C376        C  0.08392376  0.88539631  0.89781283     0.98400
O377        O  0.11494288  0.87946601  0.87906777    -0.70100
O378        O  0.09753529  0.88846884  0.80479159    -0.73700
Al379      Al  0.13679898  0.90968948  0.83554083     1.49000
C380        C  0.08072491  0.90462958  0.77693212     0.93600
O381        O  0.04084563  0.97805203  0.81958740    -0.79900
O382        O  0.12288671  0.00799871  0.89092094    -0.73500
Al383      Al  0.09334836  0.98156563  0.80685965     1.90100
O384        O  0.04827369  0.98843574  0.88086269    -0.72500
O385        O  0.14159105  0.94132971  0.91578579    -0.72400
O386        O  0.06811396  0.91780376  0.89708262    -0.78000
O387        O  0.17904031  0.92779760  0.86700079    -0.76200
O388        O  0.10882833  0.95139387  0.84470548    -1.12400
O389        O  0.16307928  0.93050914  0.78886065    -0.71600
C390        C  0.16390763  0.96454353  0.77526862     0.99200
C391        C  0.02780508  0.98959554  0.85104615     0.95600
Al392      Al  0.09613226  0.96271086  0.89237604     1.55600
O393        O  0.08388058  0.94046413  0.77163420    -0.76200
C394        C  0.17496664  0.93581021  0.90236411     0.99700
C395        C  0.11618650  0.03392795  0.86697622     0.94600
O396        O  0.09996917  0.02771739  0.83518420    -0.81500
O397        O  0.96295971  0.73244925  0.61560674    -0.81000
C398        C  0.86219802  0.84227097  0.67828802     0.98400
O399        O  0.88012787  0.84703177  0.64664138    -0.70100
O400        O  0.95401974  0.83406622  0.66152271    -0.73700
Al401      Al  0.92109823  0.81464488  0.62348536     1.49000
C402        C  0.98118537  0.81651625  0.67799022     0.93600
O403        O  0.93641669  0.74394272  0.71885038    -0.79900
O404        O  0.86038671  0.71934780  0.63935452    -0.73500
Al405      Al  0.94727059  0.74103223  0.66582783     1.90100
O406        O  0.87441501  0.73805184  0.71377297    -0.72500
O407        O  0.83918243  0.78791547  0.62146173    -0.72400
O408        O  0.86214532  0.81000468  0.69444859    -0.78000
O409        O  0.88737569  0.79851651  0.58235967    -0.76200
O410        O  0.91064138  0.77333256  0.65177457    -1.12400
O411        O  0.96567025  0.79178591  0.59567635    -0.71600
C412        C  0.97754234  0.75719730  0.59419977     0.99200
C413        C  0.90484361  0.73441367  0.73307096     0.95600
Al414      Al  0.86286421  0.76480382  0.66622510     1.55600
O415        O  0.98466990  0.78037645  0.67521107    -0.76200
C416        C  0.85169977  0.79318118  0.58763658     0.99700
C417        C  0.88364324  0.69228674  0.64392521     0.94600
O418        O  0.91633286  0.69669353  0.65896086    -0.81500
O419        O  0.86780757  0.49345670  0.72066466    -0.81000
C420        C  0.92604365  0.39080856  0.61148723     0.98400
O421        O  0.89515676  0.38393593  0.63013865    -0.70100
O422        O  0.90918823  0.39261218  0.70436176    -0.73700
Al423      Al  0.87075311  0.41409487  0.67184049     1.49000
C424        C  0.92863063  0.40868613  0.73021443     0.93600
O425        O  0.96740464  0.48219796  0.68332020    -0.79900
O426        O  0.88004599  0.51226979  0.61675888    -0.73500
Al427      Al  0.91562153  0.48544482  0.69929250     1.90100
O428        O  0.95616044  0.49646682  0.62363404    -0.72500
O429        O  0.86541572  0.44447084  0.59024027    -0.72400
O430        O  0.93911014  0.42433581  0.60896560    -0.78000
O431        O  0.82828399  0.43066767  0.63872782    -0.76200
O432        O  0.89827783  0.45578985  0.66211094    -1.12400
O433        O  0.84308265  0.43595198  0.71704787    -0.71600
C434        C  0.84442916  0.46912448  0.73241067     0.99200
C435        C  0.97841340  0.49620494  0.65212721     0.95600
Al436      Al  0.90933022  0.46809479  0.61390135     1.55600
O437        O  0.92811233  0.44471831  0.73365587    -0.76200
C438        C  0.83224332  0.43743994  0.60303837     0.99700
C439        C  0.88554086  0.53757250  0.64164191     0.94600
O440        O  0.90524359  0.53156776  0.67163790    -0.81500
O441        O  0.99657345  0.27378316  0.36873533    -0.81000
C442        C  0.10306949  0.38195467  0.42313642     0.98400
O443        O  0.10809566  0.36290457  0.39223844    -0.70100
O444        O  0.09995281  0.28848204  0.40991028    -0.73700
Al445      Al  0.07708644  0.31976547  0.37138707     1.49000
C446        C  0.08456155  0.26074095  0.42750847     0.93600
O447        O  0.01348503  0.30344423  0.47036122    -0.79900
O448        O  0.97893185  0.37497585  0.38933579    -0.73500
Al449      Al  0.00741914  0.29096772  0.41796446     1.90100
O450        O  0.00239718  0.36484282  0.46304619    -0.72500
O451        O  0.04433799  0.40058370  0.36697555    -0.72400
O452        O  0.07121903  0.38176195  0.43979187    -0.78000
O453        O  0.05788151  0.35176731  0.32977482    -0.76200
O454        O  0.03655476  0.32899211  0.40091790    -1.12400
O455        O  0.05479905  0.27366912  0.34538068    -0.71600
C456        C  0.02067957  0.26048963  0.34570213     0.99200
C457        C  0.00229943  0.33496210  0.48373216     0.95600
Al458      Al  0.02536735  0.37672527  0.41382127     1.55600
O459        O  0.04880831  0.25537944  0.42517698    -0.76200
C460        C  0.05040849  0.38731950  0.33361504     0.99700
C461        C  0.95363857  0.35112199  0.39779153     0.94600
O462        O  0.96089541  0.31939095  0.41397331    -0.81500
O463        O  0.75419681  0.37167991  0.47259780    -0.81000
C464        C  0.65408648  0.31522044  0.36021394     0.98400
O465        O  0.64616487  0.34583471  0.37926270    -0.70100
O466        O  0.65392079  0.33409981  0.45459819    -0.73700
Al467      Al  0.67597603  0.37126627  0.42135886     1.49000
C468        C  0.66951169  0.31412394  0.48051313     0.93600
O469        O  0.74346381  0.27315129  0.43266883    -0.79900
O470        O  0.77398668  0.36247800  0.36834526    -0.73500
Al471      Al  0.74640418  0.32466859  0.44982885     1.90100
O472        O  0.75999826  0.28625928  0.37396085    -0.72500
O473        O  0.70637801  0.37579071  0.34013685    -0.72400
O474        O  0.68786527  0.30243580  0.35866551    -0.78000
O475        O  0.69289639  0.41305522  0.38825796    -0.76200
O476        O  0.71747999  0.34310624  0.41240814    -1.12400
O477        O  0.69831137  0.39986162  0.46594072    -0.71600
C478        C  0.73114180  0.39741566  0.48210712     0.99200
C479        C  0.75888329  0.26313649  0.40179271     0.95600
Al480      Al  0.73068402  0.33260145  0.36431203     1.55600
O481        O  0.70547444  0.31229769  0.48312600    -0.76200
C482        C  0.69978152  0.40900625  0.35279666     0.99700
C483        C  0.79880829  0.35604733  0.39362734     0.94600
O484        O  0.79249736  0.33538283  0.42301707    -0.81500
O485        O  0.89076741  0.01976243  0.24908370    -0.81000
C486        C  0.83185941  0.12902515  0.35161649     0.98400
O487        O  0.86280346  0.11025862  0.35818876    -0.70100
O488        O  0.84943908  0.03524423  0.35045688    -0.73700
Al489      Al  0.88680149  0.06797951  0.32836220     1.49000
C490        C  0.83208817  0.00775167  0.33473008     0.93600
O491        O  0.78911175  0.05298579  0.26112895    -0.79900
O492        O  0.87396507  0.12203437  0.22982287    -0.73500
Al493      Al  0.84191320  0.03885555  0.25760149     1.90100
O494        O  0.79846825  0.11321931  0.24737568    -0.72500
O495        O  0.88973240  0.14889269  0.29705143    -0.72400
O496        O  0.81668515  0.12887469  0.31893910    -0.78000
O497        O  0.92826226  0.10124083  0.31084950    -0.76200
O498        O  0.85831630  0.07669077  0.28690744    -1.12400
O499        O  0.91479619  0.02284160  0.30692751    -0.71600
C500        C  0.91416479  0.00802959  0.27354017     0.99200
C501        C  0.77700095  0.08414580  0.24743717     0.95600
Al502      Al  0.84565167  0.12437954  0.27455753     1.55600
O503        O  0.83229563  0.00416099  0.29871857    -0.76200
C504        C  0.92324000  0.13681846  0.30423332     0.99700
C505        C  0.86875100  0.09682824  0.20478673     0.94600
O506        O  0.84983844  0.06651555  0.21127624    -0.81500
O507        O  0.79271744  0.12313377  0.00943055    -0.81000
C508        C  0.89626974  0.06384209  0.90141492     0.98400
O509        O  0.87753335  0.09498675  0.89563447    -0.70100
O510        O  0.80415083  0.07933605  0.90767324    -0.73700
Al511      Al  0.83590178  0.11789403  0.92746185     1.49000
C512        C  0.77669855  0.06288145  0.92445741     0.93600
O513        O  0.82448617  0.02154845  0.99593738    -0.79900
O514        O  0.89526831  0.10606839  0.02323418    -0.73500
Al515      Al  0.81077736  0.07393182  0.00021839     1.90100
O516        O  0.88562711  0.03032431  0.00555665    -0.72500
O517        O  0.91767391  0.12325499  0.95501110    -0.72400
O518        O  0.89808092  0.04925452  0.93428692    -0.78000
O519        O  0.86799069  0.16014251  0.94354549    -0.76200
O520        O  0.84702874  0.09011163  0.96874121    -1.12400
O521        O  0.79062809  0.14461666  0.95044894    -0.71600
C522        C  0.77823558  0.14498770  0.98489650     0.99200
C523        C  0.85636570  0.00910908  0.00709919     0.95600
Al524      Al  0.89532731  0.07812065  0.97844718     1.55600
O525        O  0.77366981  0.06411944  0.96065714    -0.76200
C526        C  0.90369248  0.15648342  0.94958487     0.99700
C527        C  0.87266345  0.09856740  0.05006828     0.94600
O528        O  0.84120520  0.08121624  0.04506307    -0.81500
C529        C  0.87155938  0.13714486  0.14746037     0.24400
C530        C  0.88255749  0.10345983  0.16669444    -0.23700
C531        C  0.89973469  0.07291160  0.14711074     0.19300
C532        C  0.90150941  0.07406432  0.10762734     0.24400
C533        C  0.88513020  0.10518809  0.08827058    -0.23600
C534        C  0.87250106  0.13781781  0.10772949     0.19300
F535        F  0.85721315  0.16808804  0.08836017    -0.13600
F536        F  0.85499381  0.16679629  0.16661990    -0.15900
F537        F  0.91446901  0.04285471  0.08816982    -0.15900
F538        F  0.91074456  0.04046162  0.16587674    -0.13600
C539        C  0.83658327  0.18860963  0.38946528     0.24400
C540        C  0.81496485  0.15643118  0.37889804    -0.23700
C541        C  0.77468787  0.15823846  0.38172419     0.19300
C542        C  0.75628187  0.19252087  0.39177931     0.24400
C543        C  0.77784079  0.22551791  0.39867611    -0.23600
C544        C  0.81807493  0.22310054  0.39895428     0.19300
F545        F  0.83937880  0.25486964  0.40576173    -0.13600
F546        F  0.87532198  0.18821082  0.38553502    -0.15900
F547        F  0.71743245  0.19444033  0.39126053    -0.15900
F548        F  0.75311893  0.12802587  0.37032949    -0.13600
C549        C  0.95002808  0.20286639  0.29026952     0.24400
C550        C  0.95524680  0.16585711  0.30636976    -0.23700
C551        C  0.98922174  0.15912744  0.32735547     0.19300
C552        C  0.01472035  0.18953685  0.33548458     0.24400
C553        C  0.00715465  0.22725094  0.32252501    -0.23600
C554        C  0.97544782  0.23293594  0.29836203     0.19300
F555        F  0.96696298  0.26880144  0.28549644    -0.13600
F556        F  0.91888636  0.21083815  0.26830342    -0.15900
F557        F  0.04459564  0.18295589  0.35953812    -0.15900
F558        F  0.99623940  0.12398976  0.34278635    -0.13600
C559        C  0.89551884  0.38157899  0.42050310     0.24400
C560        C  0.91491836  0.36182865  0.39150397    -0.23700
C561        C  0.89632872  0.34924211  0.35856950     0.19300
C562        C  0.85697434  0.35320808  0.35619804     0.24400
C563        C  0.83700446  0.36879636  0.38738782    -0.23600
C564        C  0.85620893  0.38524518  0.41833463     0.19300
F565        F  0.83647597  0.40021812  0.44844373    -0.13600
F566        F  0.91408445  0.39356352  0.45248303    -0.15900
F567        F  0.83806225  0.33665349  0.32658176    -0.15900
F568        F  0.91575856  0.32989783  0.33086730    -0.13600
C569        C  0.76566622  0.41471298  0.58210006     0.24400
C570        C  0.79926109  0.43591777  0.57476735    -0.23700
C571        C  0.80283941  0.45305307  0.53798861     0.19300
C572        C  0.77597372  0.44593322  0.50870981     0.24400
C573        C  0.74463025  0.42139696  0.51487489    -0.23600
C574        C  0.73902511  0.40725819  0.55247962     0.19300
F575        F  0.71007287  0.38228399  0.55941472    -0.13600
F576        F  0.76017987  0.39822192  0.61696715    -0.15900
F577        F  0.78281778  0.45991242  0.47295172    -0.15900
F578        F  0.83364569  0.47518612  0.52942890    -0.13600
C579        C  0.92624846  0.34222885  0.55947612     0.24400
C580        C  0.94623837  0.36182170  0.58822719    -0.23700
C581        C  0.98653861  0.36410786  0.58586268     0.19300
C582        C  0.00580263  0.35211660  0.55278633     0.24400
C583        C  0.98516996  0.33668653  0.52222778    -0.23600
C584        C  0.94576656  0.32942061  0.52669493     0.19300
F585        F  0.92552548  0.31362221  0.49757512    -0.13600
F586        F  0.88739561  0.34036498  0.56051330    -0.15900
F587        F  0.04397104  0.35865005  0.54922885    -0.15900
F588        F  0.00659450  0.38244093  0.61359996    -0.13600
C589        C  0.85151131  0.59474768  0.66304083     0.24400
C590        C  0.87204482  0.57568893  0.63431653    -0.23700
C591        C  0.88779609  0.59565499  0.60319794     0.19300
C592        C  0.88805655  0.63537064  0.60393037     0.24400
C593        C  0.87147558  0.65432366  0.63507507    -0.23600
C594        C  0.85080371  0.63442897  0.66313214     0.19300
F595        F  0.83469337  0.65325411  0.69323090    -0.13600
F596        F  0.83611440  0.57509349  0.69301554    -0.15900
F597        F  0.90817149  0.65506047  0.57697534    -0.15900
F598        F  0.90782072  0.57690055  0.57548880    -0.13600
C599        C  0.05186704  0.84190858  0.75622961     0.24400
C600        C  0.05674207  0.88165414  0.75038235    -0.23700
C601        C  0.03707498  0.89946693  0.71972408     0.19300
C602        C  0.01340827  0.87812199  0.69565811     0.24400
C603        C  0.00862150  0.83848014  0.70157846    -0.23600
C604        C  0.02830513  0.82058588  0.73200783     0.19300
F605        F  0.02352874  0.78264079  0.73950735    -0.13600
F606        F  0.06897201  0.82356493  0.78609608    -0.15900
F607        F  0.99505796  0.89647810  0.66652899    -0.15900
F608        F  0.03990388  0.93780386  0.71326326    -0.13600
C609        C  0.95759678  0.98635537  0.86290482     0.24400
C610        C  0.98981855  0.00775687  0.85263363    -0.23700
C611        C  0.98659398  0.04777820  0.84836914     0.19300
C612        C  0.95249097  0.06668052  0.85837863     0.24400
C613        C  0.92137065  0.04562858  0.87273116    -0.23600
C614        C  0.92341935  0.00513585  0.87257942     0.19300
F615        F  0.89389055  0.98408380  0.88670863    -0.13600
F616        F  0.96024153  0.94763914  0.86677234    -0.15900
F617        F  0.95187661  0.10562907  0.85942527    -0.15900
F618        F  0.01757553  0.06881433  0.83786317    -0.13600
C619        C  0.95352591  0.24943534  0.91914359     0.24400
C620        C  0.98952654  0.24551672  0.93722586    -0.26100
C621        C  0.99392602  0.21595675  0.96442414     0.19300
C622        C  0.96479350  0.18880764  0.97046743     0.24400
C623        C  0.93038818  0.19023480  0.94921767    -0.23600
C624        C  0.92425156  0.22219383  0.92509221     0.19300
F625        F  0.89155411  0.22504699  0.90423053    -0.13600
F626        F  0.94850735  0.27679650  0.89175827    -0.15900
F627        F  0.97127151  0.15967183  0.99562568    -0.15900
F628        F  0.02823934  0.21078555  0.98201082    -0.13600
C629        C  0.00759515  0.38108396  0.80021544     0.24400
C630        C  0.00102506  0.34162091  0.80588991    -0.23700
C631        C  0.97044424  0.32431698  0.78596378     0.19300
C632        C  0.94694867  0.34595289  0.76151149     0.24400
C633        C  0.95307646  0.38551882  0.75652004    -0.23600
C634        C  0.98381955  0.40275773  0.77611830     0.19300
F635        F  0.99186997  0.44053390  0.77108162    -0.13600
F636        F  0.03773164  0.39878934  0.81709410    -0.15900
F637        F  0.91801965  0.32799930  0.74289651    -0.15900
F638        F  0.96321519  0.28623231  0.78972311    -0.13600
C639        C  0.15396113  0.13226448  0.86529009     0.24400
C640        C  0.12376177  0.15069451  0.88442686    -0.23700
C641        C  0.09591340  0.12991960  0.90436355     0.19300
C642        C  0.09593136  0.09038804  0.90164360     0.24400
C643        C  0.12315343  0.07243378  0.87820347    -0.23600
C644        C  0.15311882  0.09280045  0.86137766     0.19300
F645        F  0.17906956  0.07495633  0.83837976    -0.13600
F646        F  0.18067806  0.15275796  0.84570326    -0.15900
F647        F  0.06693758  0.07007525  0.91788979    -0.15900
F648        F  0.06654651  0.14808629  0.92255618    -0.13600
C649        C  0.24198948  0.37780826  0.82092477     0.24400
C650        C  0.24245790  0.38137891  0.78078744    -0.23700
C651        C  0.20796822  0.37948632  0.76039037     0.19300
C652        C  0.17394759  0.37004456  0.77958236     0.24400
C653        C  0.17400618  0.36331933  0.81943285    -0.23600
C654        C  0.20782905  0.36947479  0.84022578     0.19300
F655        F  0.20886823  0.36248887  0.87855939    -0.13600
F656        F  0.27509879  0.38022764  0.84117391    -0.15900
F657        F  0.14172687  0.36360518  0.75886110    -0.15900
F658        F  0.20787513  0.38332603  0.72163450    -0.13600
C659        C  0.25001295  0.28593822  0.97769845     0.24400
C660        C  0.24451182  0.31123519  0.00839876    -0.23700
C661        C  0.20680493  0.32369135  0.01655200     0.19300
C662        C  0.17595387  0.31391101  0.99225273     0.24400
C663        C  0.18233086  0.29187308  0.95897841    -0.23600
C664        C  0.21944454  0.27598949  0.95363168     0.19300
F665        F  0.22694447  0.25242215  0.92357525    -0.13600
F666        F  0.28590961  0.27344913  0.96897736    -0.15900
F667        F  0.14064500  0.32865494  0.99960272    -0.15900
F668        F  0.20049013  0.34859190  0.04576996    -0.13600
C669        C  0.40245194  0.40832195  0.89954025     0.24400
C670        C  0.38485036  0.37887984  0.92028677    -0.23700
C671        C  0.37233254  0.34548244  0.90233479     0.19300
C672        C  0.37307095  0.34355671  0.86261724     0.24400
C673        C  0.38521795  0.37566725  0.84163840    -0.23600
C674        C  0.40212319  0.40696983  0.85991251     0.19300
F675        F  0.41440359  0.43776843  0.83943889    -0.13600
F676        F  0.41587521  0.44007912  0.91745921    -0.15900
F677        F  0.35712587  0.31295297  0.84480902    -0.15900
F678        F  0.35594584  0.31679702  0.92301342    -0.13600
C679        C  0.78794031  0.53602636  0.79368732     0.24400
C680        C  0.80949366  0.53451259  0.82794335    -0.23700
C681        C  0.83500824  0.50347434  0.83294785     0.19300
C682        C  0.84166600  0.47716763  0.80293217     0.24400
C683        C  0.82284950  0.48100304  0.76728882    -0.23600
C684        C  0.79471661  0.50980903  0.76375986     0.19300
F685        F  0.77666155  0.51514140  0.72969635    -0.13600
F686        F  0.76169416  0.56440502  0.78818800    -0.15900
F687        F  0.87035846  0.45098771  0.80687103    -0.15900
F688        F  0.85652811  0.50085363  0.86523619    -0.13600
C689        C  0.90058417  0.65747795  0.80945462     0.24400
C690        C  0.88542532  0.67832943  0.84041336    -0.23700
C691        C  0.88461510  0.71879582  0.83806464     0.19300
C692        C  0.89324953  0.73753452  0.80357130     0.24400
C693        C  0.90366893  0.71620592  0.77126390    -0.23600
C694        C  0.90947053  0.67634400  0.77492666     0.19300
F695        F  0.92041930  0.65528592  0.74406019    -0.13600
F696        F  0.90166398  0.61853544  0.81077326    -0.15900
F697        F  0.88853172  0.77614347  0.80086269    -0.15900
F698        F  0.87033777  0.73973473  0.86766267    -0.13600
C699        C  0.41847402  0.54094384  0.74221410     0.24400
C700        C  0.43315623  0.50354059  0.74798616    -0.23700
C701        C  0.45804846  0.49754652  0.77907141     0.19300
C702        C  0.46581086  0.52712275  0.80522895     0.24400
C703        C  0.44895179  0.56396075  0.80108445    -0.23600
C704        C  0.42665809  0.57091251  0.76810269     0.19300
F705        F  0.40967129  0.60563792  0.76279692    -0.13600
F706        F  0.39237000  0.54733303  0.71406748    -0.15900
F707        F  0.48806697  0.51875559  0.83608305    -0.15900
F708        F  0.47155011  0.46168044  0.78654909    -0.13600
C709        C  0.37424076  0.57782916  0.98528285     0.24400
C710        C  0.37616058  0.57749750  0.94487493    -0.23700
C711        C  0.36362583  0.54489229  0.92517100     0.19300
C712        C  0.35321715  0.51183417  0.94553911     0.24400
C713        C  0.35544030  0.51084177  0.98580595    -0.23600
C714        C  0.36432602  0.54453595  0.00567335     0.19300
F715        F  0.36631256  0.54437822  0.04454515    -0.13600
F716        F  0.38630770  0.60912003  0.00490338    -0.15900
F717        F  0.34437671  0.47959014  0.92578928    -0.15900
F718        F  0.36682699  0.54313531  0.88638614    -0.13600
C719        C  0.61060095  0.65046079  0.85408764     0.24400
C720        C  0.59020878  0.62229961  0.87408709    -0.23700
C721        C  0.60867318  0.58956286  0.88865434     0.19300
C722        C  0.64834964  0.58786923  0.88822028     0.24400
C723        C  0.66876535  0.61841851  0.87242894    -0.23600
C724        C  0.65018111  0.64819592  0.85278858     0.19300
F725        F  0.67045081  0.67749203  0.83700055    -0.13600
F726        F  0.59250236  0.68178049  0.83933678    -0.15900
F727        F  0.66681214  0.55899959  0.90694395    -0.15900
F728        F  0.58875024  0.56221796  0.90797057    -0.13600
C729        C  0.35839784  0.84812787  0.32707489     0.24400
C730        C  0.36825577  0.82639112  0.35922967    -0.23700
C731        C  0.37769791  0.84349571  0.39409491     0.19300
C732        C  0.38082231  0.88304551  0.39576302     0.24400
C733        C  0.37536088  0.90453013  0.36218335    -0.23600
C734        C  0.36245281  0.88738676  0.32835518     0.19300
F735        F  0.35803068  0.90808020  0.29557958    -0.13600
F736        F  0.35003583  0.83094383  0.29320026    -0.15900
F737        F  0.39444921  0.89961463  0.42816869    -0.15900
F738        F  0.38873848  0.82178095  0.42460028    -0.13600
C739        C  0.96215325  0.97868561  0.23018656     0.24400
C740        C  0.93708439  0.97413263  0.26140787    -0.23700
C741        C  0.92175996  0.93730654  0.26822742     0.19300
C742        C  0.92840047  0.90686956  0.24235029     0.24400
C743        C  0.95023246  0.91277240  0.20879872    -0.23600
C744        C  0.96868625  0.94857886  0.20429364     0.19300
F745        F  0.99120419  0.95553458  0.17324374    -0.13600
F746        F  0.97685373  0.01383358  0.22220063    -0.15900
F747        F  0.91036391  0.87293162  0.24826467    -0.15900
F748        F  0.89628944  0.93214270  0.29726136    -0.13600
C749        C  0.85890422  0.74061196  0.05143277     0.24400
C750        C  0.89739803  0.73116933  0.05956420    -0.23700
C751        C  0.91290509  0.69710251  0.04407904     0.19300
C752        C  0.89077243  0.67375525  0.02040555     0.24400
C753        C  0.85273174  0.68372689  0.01161884    -0.23600
C754        C  0.83679749  0.71714364  0.02780704     0.19300
F755        F  0.80042318  0.72817595  0.01926853    -0.13600
F756        F  0.84276528  0.77341525  0.06509206    -0.15900
F757        F  0.90671720  0.64115502  0.00609418    -0.15900
F758        F  0.94955222  0.68633088  0.05160362    -0.13600
C759        C  0.87160021  0.93924470  0.00407230     0.24400
C760        C  0.85897539  0.97097893  0.02514224    -0.23700
C761        C  0.85210629  0.96698077  0.06473097     0.19300
C762        C  0.86188069  0.93279419  0.08377229     0.24400
C763        C  0.87845607  0.90231892  0.06324401    -0.23600
C764        C  0.88069163  0.90490664  0.02291835     0.19300
F765        F  0.89594081  0.87551374  0.00234176    -0.13600
F766        F  0.87774526  0.94237381  0.96573686    -0.15900
F767        F  0.85977968  0.93135779  0.12264369    -0.15900
F768        F  0.83897051  0.99727328  0.08541692    -0.13600
C769        C  0.07091903  0.83471290  0.99123625     0.24400
C770        C  0.03071820  0.83582781  0.99431442    -0.23700
C771        C  0.00883131  0.84414183  0.96169515     0.19300
C772        C  0.02689972  0.85507623  0.92745742     0.24400
C773        C  0.06720015  0.85767693  0.92527281    -0.23600
C774        C  0.08909424  0.84543865  0.95686313     0.19300
F775        F  0.12786246  0.84853892  0.95609206    -0.13600
F776        F  0.09258068  0.82585494  0.02236800    -0.15900
F777        F  0.00496344  0.86714047  0.89758581    -0.15900
F778        F  0.96998555  0.84478184  0.96390943    -0.13600
C779        C  0.22970830  0.95251315  0.99491616     0.24400
C780        C  0.25902541  0.92482809  0.99256785    -0.23700
C781        C  0.26569943  0.90721957  0.95677288     0.19300
C782        C  0.24049427  0.91324393  0.92568634     0.24400
C783        C  0.20810971  0.93717156  0.92982054    -0.23600
C784        C  0.20497963  0.95909779  0.96374244     0.19300
F785        F  0.17642043  0.98543544  0.96762852    -0.13600
F786        F  0.22286085  0.97076132  0.02859166    -0.15900
F787        F  0.24577290  0.89281217  0.89302716    -0.15900
F788        F  0.29388269  0.88044662  0.95338226    -0.13600
C789        C  0.29365120  0.93984312  0.22077206     0.24400
C790        C  0.30861489  0.94514173  0.18334709    -0.23700
C791        C  0.32741242  0.98012079  0.17553361     0.19300
C792        C  0.33488703  0.00659379  0.20528551     0.24400
C793        C  0.32322430  0.99912730  0.24337163    -0.23600
C794        C  0.30093805  0.96632572  0.25014444     0.19300
F795        F  0.29007099  0.95751468  0.28654382    -0.13600
F796        F  0.27374207  0.90767839  0.22985746    -0.15900
F797        F  0.35744689  0.03735996  0.19774825    -0.15900
F798        F  0.34145492  0.98734413  0.13992785    -0.13600
C799        C  0.39381634  0.80299534  0.99356074     0.24400
C800        C  0.35387482  0.79784347  0.99661228    -0.23700
C801        C  0.33659831  0.76911099  0.97432515     0.19300
C802        C  0.35883445  0.74492241  0.95112904     0.24400
C803        C  0.39902309  0.74908442  0.94922018    -0.23600
C804        C  0.41602914  0.77901848  0.97020473     0.19300
F805        F  0.45445321  0.78494114  0.96885814    -0.13600
F806        F  0.41169684  0.83111365  0.01346657    -0.15900
F807        F  0.34088325  0.71667441  0.93149807    -0.15900
F808        F  0.29818969  0.76319938  0.97600367    -0.13600
C809        C  0.38177749  0.75765969  0.16461982     0.24400
C810        C  0.38532592  0.79801119  0.16368022    -0.23700
C811        C  0.40421619  0.81624139  0.19399410     0.19300
C812        C  0.41343582  0.79538369  0.22724333     0.24400
C813        C  0.40323748  0.75643368  0.23057744    -0.23600
C814        C  0.38934743  0.73719536  0.19838391     0.19300
F815        F  0.38045285  0.69936778  0.20051033    -0.13600
F816        F  0.36534503  0.73908970  0.13472411    -0.15900
F817        F  0.42857550  0.81413135  0.25768072    -0.15900
F818        F  0.40873273  0.85491835  0.19371594    -0.13600
C819        C  0.11119767  0.82219882  0.15464242     0.24400
C820        C  0.08892537  0.85237624  0.14021317    -0.23700
C821        C  0.10562313  0.88794873  0.13127943     0.19300
C822        C  0.14526159  0.89057615  0.12935663     0.24400
C823        C  0.16731724  0.85825547  0.13813333    -0.23600
C824        C  0.15066478  0.82538031  0.15402742     0.19300
F825        F  0.17257312  0.79488821  0.16474596    -0.13600
F826        F  0.09488308  0.78858046  0.16565255    -0.15900
F827        F  0.16184278  0.92289495  0.11532679    -0.15900
F828        F  0.08390176  0.91820396  0.11950337    -0.13600
C829        C  0.51875642  0.82056298  0.82910364     0.24400
C830        C  0.55171767  0.81388298  0.80662780    -0.23700
C831        C  0.55502826  0.77813346  0.78781200     0.19300
C832        C  0.52859484  0.74860475  0.79483663     0.24400
C833        C  0.49762474  0.75413212  0.82009590    -0.23600
C834        C  0.49196749  0.79107481  0.83554488     0.19300
F835        F  0.46324193  0.79707877  0.86119788    -0.13600
F836        F  0.51431196  0.85426995  0.84802912    -0.15900
F837        F  0.53570910  0.71315777  0.78033451    -0.15900
F838        F  0.58528488  0.77076244  0.76435445    -0.13600
C839        C  0.72491336  0.02094065  0.83888768     0.24400
C840        C  0.69810832  0.99662289  0.85663967    -0.23700
C841        C  0.69529308  0.99656245  0.89696125     0.19300
C842        C  0.72016288  0.01863559  0.91905435     0.24400
C843        C  0.74813855  0.04173397  0.90132496    -0.23600
C844        C  0.74943727  0.04336806  0.86090843     0.19300
F845        F  0.77494560  0.06617720  0.84234023    -0.13600
F846        F  0.72863807  0.02205612  0.80012285    -0.15900
F847        F  0.71731422  0.01644588  0.95784538    -0.15900
F848        F  0.66869416  0.97478493  0.91524642    -0.13600
C849        C  0.73540832  0.81916712  0.87958701     0.24400
C850        C  0.69504554  0.82177105  0.87865192    -0.23700
C851        C  0.67335340  0.79074829  0.89237258     0.19300
C852        C  0.69157484  0.75629774  0.90271520     0.24400
C853        C  0.73165325  0.75274566  0.90012002    -0.23600
C854        C  0.75357106  0.78486807  0.89036039     0.19300
F855        F  0.79235782  0.78213294  0.88853195    -0.13600
F856        F  0.75710123  0.84869150  0.86643942    -0.15900
F857        F  0.66992457  0.72541647  0.91226989    -0.15900
F858        F  0.63447689  0.79206778  0.89107459    -0.13600
C859        C  0.80645633  0.88660032  0.67208135     0.24400
C860        C  0.83594672  0.87120809  0.69492514    -0.23700
C861        C  0.83198580  0.87240524  0.73518409     0.19300
C862        C  0.79743663  0.88416783  0.75200962     0.24400
C863        C  0.76644761  0.89503474  0.72890655    -0.23600
C864        C  0.77173832  0.89818950  0.68901359     0.19300
F865        F  0.74212111  0.90914191  0.66620934    -0.13600
F866        F  0.80921042  0.88552616  0.63324844    -0.15900
F867        F  0.79311932  0.88173593  0.79064363    -0.15900
F868        F  0.86006643  0.85791213  0.75802520    -0.13600
C869        C  0.75740660  0.78279213  0.53350108     0.24400
C870        C  0.76239145  0.80719942  0.50178279    -0.23700
C871        C  0.79925881  0.82250459  0.49526419     0.19300
C872        C  0.82940231  0.81599974  0.52158208     0.24400
C873        C  0.82321359  0.79428036  0.55524631    -0.23600
C874        C  0.78725767  0.77626062  0.55970069     0.19300
F875        F  0.78000808  0.75396239  0.59086001    -0.13600
F876        F  0.72210505  0.76857299  0.54144322    -0.15900
F877        F  0.86338094  0.83397561  0.51589151    -0.15900
F878        F  0.80483580  0.84761725  0.46592891    -0.13600
C879        C  0.57590321  0.75817980  0.43153790     0.24400
C880        C  0.56991808  0.79429313  0.44889398    -0.23700
C881        C  0.53224316  0.80317307  0.46132817     0.19300
C882        C  0.50120648  0.77929640  0.45243835     0.24400
C883        C  0.50664837  0.74483319  0.43225898    -0.23600
C884        C  0.54460589  0.73373394  0.42341901     0.19300
F885        F  0.55101561  0.70102382  0.40334492    -0.13600
F886        F  0.61153159  0.74765526  0.41984773    -0.15900
F887        F  0.46515964  0.79146040  0.46099168    -0.15900
F888        F  0.52482374  0.83620329  0.48060313    -0.13600
C889        C  0.78542607  0.95347010  0.34058874     0.24400
C890        C  0.81020115  0.97986880  0.35829560    -0.23700
C891        C  0.81218896  0.98041959  0.39861711     0.19300
C892        C  0.78854112  0.95668447  0.42066655     0.24400
C893        C  0.76228303  0.93180659  0.40290858    -0.23600
C894        C  0.76182149  0.92982786  0.36257521     0.19300
F895        F  0.73786352  0.90558495  0.34400583    -0.13600
F896        F  0.78280651  0.95122548  0.30180367    -0.15900
F897        F  0.79057540  0.95921454  0.45945140    -0.15900
F898        F  0.83649335  0.00445504  0.41698026    -0.13600
C899        C  0.55670588  0.90884564  0.36298794     0.24400
C900        C  0.58930167  0.93032158  0.37227479    -0.23700
C901        C  0.58780119  0.97064721  0.36867896     0.19300
C902        C  0.55309466  0.98927353  0.36062597     0.24400
C903        C  0.51959167  0.96778503  0.35639690    -0.23600
C904        C  0.52184211  0.92751846  0.35580962     0.19300
F905        F  0.48970596  0.90629750  0.35084071    -0.13600
F906        F  0.55722971  0.87001192  0.36643115    -0.15900
F907        F  0.55149609  0.02820966  0.36065315    -0.15900
F908        F  0.61883360  0.99207397  0.37793365    -0.13600
C909        C  0.64365954  0.84177439  0.60818049     0.24400
C910        C  0.62284805  0.86994939  0.58854535    -0.23700
C911        C  0.59762418  0.89456523  0.60781688     0.19300
C912        C  0.59815517  0.89528750  0.64752661     0.24400
C913        C  0.62278717  0.87033020  0.66716472    -0.23600
C914        C  0.64290196  0.84136626  0.64785775     0.19300
F915        F  0.66613300  0.81662743  0.66718706    -0.13600
F916        F  0.66788412  0.81784884  0.58913967    -0.15900
F917        F  0.57795605  0.92268497  0.66656817    -0.15900
F918        F  0.57690069  0.92132232  0.58831535    -0.13600
C919        C  0.45707930  0.22978794  0.08157549     0.24400
C920        C  0.49429365  0.23668082  0.06718472    -0.23700
C921        C  0.49934716  0.26878740  0.04314330     0.19300
C922        C  0.46951354  0.29547047  0.03717652     0.24400
C923        C  0.43340116  0.29086639  0.05503316    -0.23600
C924        C  0.42694161  0.25644986  0.07543930     0.19300
F925        F  0.39253583  0.25022622  0.09252687    -0.13600
F926        F  0.45095197  0.19949366  0.10534205    -0.15900
F927        F  0.47680012  0.32704816  0.01546836    -0.15900
F928        F  0.53456313  0.27631525  0.02836733    -0.13600
C929        C  0.74976927  0.19121592  0.03051765     0.24400
C930        C  0.74459444  0.16754144  0.99847753    -0.23700
C931        C  0.70728804  0.15411420  0.99080817     0.19300
C932        C  0.67664080  0.16176460  0.01635126     0.24400
C933        C  0.68287848  0.18252270  0.05044491    -0.23600
C934        C  0.71952163  0.19874573  0.05597548     0.19300
F935        F  0.72702585  0.22009728  0.08755795    -0.13600
F936        F  0.78545116  0.20363143  0.03955031    -0.15900
F937        F  0.64190275  0.14590346  0.00940945    -0.15900
F938        F  0.70149339  0.12977915  0.96107477    -0.13600
C939        C  0.44952245  0.13875450  0.24903951     0.24400
C940        C  0.44989417  0.09837031  0.24809205    -0.23700
C941        C  0.47185354  0.07972531  0.21959447     0.19300
C942        C  0.49458872  0.10062078  0.19439045     0.24400
C943        C  0.49578575  0.14083996  0.19648553    -0.23600
C944        C  0.47220734  0.15979089  0.22342003     0.19300
F945        F  0.47215388  0.19865833  0.22617794    -0.13600
F946        F  0.42789727  0.15798427  0.27514618    -0.15900
F947        F  0.51597754  0.08109788  0.16829324    -0.15900
F948        F  0.47231718  0.04088551  0.21631427    -0.13600
C949        C  0.70272759  0.09515195  0.16915804     0.24400
C950        C  0.67022126  0.10644077  0.19028959    -0.23700
C951        C  0.67151286  0.10339306  0.23068594     0.19300
C952        C  0.70568060  0.09345722  0.24956937     0.24400
C953        C  0.73912457  0.08628585  0.22840944    -0.23600
C954        C  0.73699659  0.08546338  0.18810877     0.19300
F955        F  0.76898343  0.07813203  0.16706491    -0.13600
F956        F  0.70285630  0.09832570  0.13033933    -0.15900
F957        F  0.70692572  0.09417687  0.28847327    -0.15900
F958        F  0.64073778  0.11436396  0.25196823    -0.13600
C959        C  0.60535626  0.31499795  0.30743134     0.24400
C960        C  0.62653004  0.29479355  0.33527864    -0.23700
C961        C  0.63193922  0.25485830  0.33052834     0.19300
C962        C  0.62147837  0.23678512  0.29641922     0.24400
C963        C  0.60336817  0.25766271  0.26729703    -0.23600
C964        C  0.59337786  0.29633395  0.27380793     0.19300
F965        F  0.57569759  0.31703166  0.24585729    -0.13600
F966        F  0.60055575  0.35355710  0.31039099    -0.15900
F967        F  0.63171742  0.19960265  0.29060008    -0.15900
F968        F  0.65172442  0.23426564  0.35711608    -0.13600
C969        C  0.71485300  0.43752036  0.28767844     0.24400
C970        C  0.69903655  0.44201282  0.32483549    -0.23700
C971        C  0.68000952  0.47681684  0.33308965     0.19300
C972        C  0.67341957  0.50425399  0.30393989     0.24400
C973        C  0.68590539  0.49773031  0.26601274    -0.23600
C974        C  0.70843819  0.46503010  0.25887397     0.19300
F975        F  0.71985600  0.45714067  0.22245894    -0.13600
F976        F  0.73440825  0.40512768  0.27813879    -0.15900
F977        F  0.65035807  0.53479201  0.31158962    -0.15900
F978        F  0.66455138  0.48279646  0.36832171    -0.13600
C979        C  0.69911422  0.52438565  0.03910773     0.24400
C980        C  0.70474953  0.54053555  0.07586741    -0.23700
C981        C  0.73943968  0.56004130  0.08244224     0.19300
C982        C  0.76513646  0.56738477  0.05186367     0.24400
C983        C  0.75705616  0.55477619  0.01432136    -0.23600
C984        C  0.72474525  0.53158660  0.00893205     0.19300
F985        F  0.71574506  0.51924968  0.97317720    -0.13600
F986        F  0.66733174  0.50345433  0.03137681    -0.15900
F987        F  0.79558391  0.59063449  0.05804609    -0.15900
F988        F  0.74707233  0.57472559  0.11758216    -0.13600
C989        C  0.53581650  0.57951849  0.29043538     0.24400
C990        C  0.55344818  0.59628992  0.25799763    -0.23700
C991        C  0.54666512  0.63537425  0.25014905     0.19300
C992        C  0.52287120  0.65707143  0.27410930     0.24400
C993        C  0.50520550  0.64012746  0.30634976    -0.23600
C994        C  0.51173009  0.60110482  0.31404339     0.19300
F995        F  0.49476338  0.58364895  0.34449430    -0.13600
F996        F  0.54156366  0.54198795  0.29944507    -0.15900
F997        F  0.51567833  0.69423804  0.26456568    -0.15900
F998        F  0.56178464  0.65240023  0.21849277    -0.13600
C999        C  0.51869816  0.60522756  0.07985379     0.24400
C1000       C  0.55798110  0.61190595  0.08675941    -0.23700
C1001       C  0.57879985  0.63457514  0.06074782     0.19300
C1002       C  0.56161988  0.64689596  0.02651147     0.24400
C1003       C  0.52366199  0.63658135  0.01814956    -0.23600
C1004       C  0.50197633  0.61674746  0.04540654     0.19300
F1005       F  0.46562823  0.60570050  0.03726170    -0.13600
F1006       F  0.49778641  0.58331031  0.10442698    -0.15900
F1007       F  0.58315232  0.66537398  0.99981105    -0.15900
F1008       F  0.61686614  0.64042255  0.06597754    -0.13600
C1009       C  0.63028570  0.38475803  0.10739688     0.24400
C1010       C  0.63483007  0.40230641  0.14333256    -0.23700
C1011       C  0.64517000  0.38082871  0.17565527     0.19300
C1012       C  0.64621399  0.34139306  0.17319682     0.24400
C1013       C  0.63671952  0.32377613  0.13858646    -0.23600
C1014       C  0.63095522  0.34504299  0.10513306     0.19300
F1015       F  0.62141654  0.32747479  0.07180153    -0.13600
F1016       F  0.61995037  0.40549998  0.07598336    -0.15900
F1017       F  0.65142303  0.32031105  0.20562270    -0.15900
F1018       F  0.65003125  0.39775253  0.21034398    -0.13600
C1019       C  0.45650357  0.48140039  0.15577978     0.24400
C1020       C  0.49115209  0.46113461  0.15282094    -0.23700
C1021       C  0.49074029  0.42135986  0.14666773     0.19300
C1022       C  0.45612533  0.40249628  0.14041402     0.24400
C1023       C  0.42181603  0.42358642  0.13837829    -0.23600
C1024       C  0.42192181  0.46274676  0.14824353     0.19300
F1025       F  0.38915271  0.48379445  0.14580202    -0.13600
F1026       F  0.45651377  0.51985420  0.16196515    -0.15900
F1027       F  0.45685391  0.36484653  0.13046665    -0.15900
F1028       F  0.52410142  0.40122996  0.14439345    -0.13600
C1029       C  0.48479293  0.24928924  0.71564474     0.24400
C1030       C  0.51305071  0.25266239  0.68718909    -0.23700
C1031       C  0.51758604  0.28861445  0.66895179     0.19300
C1032       C  0.49205132  0.31929860  0.67652651     0.24400
C1033       C  0.46120617  0.31441351  0.70222817    -0.23600
C1034       C  0.45943303  0.27969945  0.72328208     0.19300
F1035       F  0.43128717  0.27405047  0.74962624    -0.13600
F1036       F  0.47902637  0.21491479  0.73313591    -0.15900
F1037       F  0.49526131  0.35223053  0.65589118    -0.15900
F1038       F  0.54374725  0.29252586  0.64032949    -0.13600
C1039       C  0.54011021  0.00113486  0.73786455     0.24400
C1040       C  0.56725367  0.00441199  0.76732651    -0.23700
C1041       C  0.58441868  0.04053453  0.77305913     0.19300
C1042       C  0.57886735  0.07076793  0.74650567     0.24400
C1043       C  0.55594129  0.06530187  0.71377623    -0.23600
C1044       C  0.53425607  0.03123337  0.71164792     0.19300
F1045       F  0.50915555  0.02587538  0.68246572    -0.13600
F1046       F  0.52273351  0.96695397  0.73159251    -0.15900
F1047       F  0.59886937  0.10376006  0.75086852    -0.15900
F1048       F  0.61066093  0.04484232  0.80138785    -0.13600
C1049       C  0.58508587  0.26255445  0.52606262     0.24400
C1050       C  0.60289898  0.24332066  0.55686780    -0.23700
C1051       C  0.64215321  0.24910929  0.56339146     0.19300
C1052       C  0.66336236  0.27299866  0.53934647     0.24400
C1053       C  0.64591804  0.29157200  0.50783708    -0.23600
C1054       C  0.60633264  0.28652680  0.50185516     0.19300
F1055       F  0.58825425  0.30372580  0.47188555    -0.13600
F1056       F  0.54744071  0.25686011  0.51820670    -0.15900
F1057       F  0.70121166  0.27755073  0.54700424    -0.15900
F1058       F  0.66024844  0.23161362  0.59318561    -0.13600
C1059       C  0.65291508  0.04488983  0.58323966     0.24400
C1060       C  0.63337697  0.07440178  0.56386093    -0.23700
C1061       C  0.62974499  0.07224328  0.52359162     0.19300
C1062       C  0.63995215  0.03874152  0.50404803     0.24400
C1063       C  0.65556421  0.00765215  0.52419846    -0.23600
C1064       C  0.66412754  0.01168323  0.56339577     0.19300
F1065       F  0.67949920  0.98179458  0.58325996    -0.13600
F1066       F  0.65629827  0.04580780  0.62199505    -0.15900
F1067       F  0.63171342  0.03547644  0.46615021    -0.15900
F1068       F  0.61163985  0.10075143  0.50400579    -0.13600
C1069       C  0.48600325  0.10996257  0.43020537     0.24400
C1070       C  0.44606136  0.11441266  0.42543146    -0.23700
C1071       C  0.42470525  0.13259407  0.45439717     0.19300
C1072       C  0.44235592  0.14227864  0.48913454     0.24400
C1073       C  0.48132465  0.13374173  0.49507208    -0.23600
C1074       C  0.50331756  0.11895504  0.46502046     0.19300
F1075       F  0.54093700  0.11056529  0.47035997    -0.13600
F1076       F  0.50734781  0.09222558  0.40280742    -0.15900
F1077       F  0.42075980  0.15677995  0.51816439    -0.15900
F1078       F  0.38611267  0.13636477  0.45107554    -0.13600
C1079       C  0.27329572  0.02976145  0.49406441     0.24400
C1080       C  0.24645460  0.05970805  0.49050226    -0.23700
C1081       C  0.24525818  0.08029395  0.45558965     0.19300
C1082       C  0.27194099  0.07287421  0.42609037     0.24400
C1083       C  0.30074360  0.04481670  0.43090500    -0.23600
C1084       C  0.30006789  0.02236599  0.46475512     0.19300
F1085       F  0.32698840  0.99472620  0.47068064    -0.13600
F1086       F  0.27634417  0.01043370  0.52780444    -0.15900
F1087       F  0.27216693  0.09606398  0.39472361    -0.15900
F1088       F  0.22150513  0.11110274  0.45206854    -0.13600
C1089       C  0.16582136  0.97344942  0.70445482     0.24400
C1090       C  0.18494857  0.97624917  0.73999627    -0.23700
C1091       C  0.21420043  0.00355567  0.74335215     0.19300
C1092       C  0.22169427  0.02969028  0.71348969     0.24400
C1093       C  0.19995480  0.02940906  0.67931531    -0.23600
C1094       C  0.17344584  0.99951988  0.67431202     0.19300
F1095       F  0.15192044  0.99801023  0.64198416    -0.13600
F1096       F  0.13620078  0.94864175  0.70065656    -0.15900
F1097       F  0.24859507  0.05711006  0.71918311    -0.15900
F1098       F  0.23271374  0.00768096  0.77728236    -0.13600
C1099       C  0.14811757  0.23901310  0.45444768     0.24400
C1100       C  0.10806092  0.23471540  0.45202184    -0.23700
C1101       C  0.09030353  0.20663492  0.47521224     0.19300
C1102       C  0.11191935  0.18357688  0.49997753     0.24400
C1103       C  0.15188047  0.18806074  0.50258998    -0.23600
C1104       C  0.16968481  0.21618933  0.47956616     0.19300
F1105       F  0.20797005  0.22254303  0.48199709    -0.13600
F1106       F  0.16664439  0.26571223  0.43295623    -0.15900
F1107       F  0.09343152  0.15683430  0.52145208    -0.15900
F1108       F  0.05172459  0.20173976  0.47472706    -0.13600
C1109       C  0.10607163  0.17092395  0.74212952     0.24400
C1110       C  0.10726008  0.21119933  0.74403486    -0.23700
C1111       C  0.11441041  0.23252598  0.71074508     0.19300
C1112       C  0.12397379  0.21373100  0.67664811     0.24400
C1113       C  0.12668933  0.17340277  0.67558008    -0.23600
C1114       C  0.11556806  0.15205938  0.70795725     0.19300
F1115       F  0.11894953  0.11320401  0.70805087    -0.13600
F1116       F  0.09849786  0.14988937  0.77410966    -0.15900
F1117       F  0.13519026  0.23489797  0.64587043    -0.15900
F1118       F  0.11550187  0.27143112  0.71213964    -0.13600
C1119       C  0.39747896  0.12418670  0.66110549     0.24400
C1120       C  0.41847481  0.10893915  0.63066466    -0.23700
C1121       C  0.40083482  0.08803054  0.60146111     0.19300
C1122       C  0.36129021  0.08689909  0.59993370     0.24400
C1123       C  0.34010716  0.10627042  0.62790280    -0.23600
C1124       C  0.35787130  0.12246890  0.65996887     0.19300
F1125       F  0.33704807  0.14143249  0.68693192    -0.13600
F1126       F  0.41507841  0.14423271  0.68930923    -0.15900
F1127       F  0.34374261  0.07074699  0.56925442    -0.15900
F1128       F  0.42167292  0.07316611  0.57203267    -0.13600
C1129       C  0.32128931  0.24807260  0.61659877     0.24400
C1130       C  0.28116096  0.24780467  0.61336607    -0.23700
C1131       C  0.26078110  0.28247746  0.61545359     0.19300
C1132       C  0.28003598  0.31661202  0.62401375     0.24400
C1133       C  0.31993621  0.31651411  0.63018717    -0.23600
C1134       C  0.34059266  0.28222466  0.62476482     0.19300
F1135       F  0.37872328  0.28076780  0.63244108    -0.13600
F1136       F  0.34152247  0.21476033  0.61416297    -0.15900
F1137       F  0.25927815  0.34901413  0.63050257    -0.15900
F1138       F  0.22198899  0.28269971  0.61256518    -0.13600
C1139       C  0.03823954  0.47965147  0.27478153     0.24400
C1140       C  0.06475328  0.47436244  0.24472293    -0.23700
C1141       C  0.08028100  0.43721857  0.23985455     0.19300
C1142       C  0.07353699  0.40783667  0.26711695     0.24400
C1143       C  0.05070503  0.41472020  0.29986097    -0.23600
C1144       C  0.03117569  0.45033586  0.30184154     0.19300
F1145       F  0.00684140  0.45778951  0.33136481    -0.13600
F1146       F  0.02239997  0.51485567  0.28045267    -0.15900
F1147       F  0.09252093  0.37397521  0.26336968    -0.15900
F1148       F  0.10603960  0.43077014  0.21134464    -0.13600
C1149       C  0.01421655  0.65550279  0.18192418     0.24400
C1150       C  0.04683930  0.66242901  0.20455693    -0.23700
C1151       C  0.04853517  0.69748357  0.22471628     0.19300
C1152       C  0.02133244  0.72666355  0.21816990     0.24400
C1153       C  0.99161334  0.72161728  0.19154332    -0.23600
C1154       C  0.98706123  0.68488390  0.17531553     0.19300
F1155       F  0.95930161  0.67910510  0.14875942    -0.13600
F1156       F  0.01047879  0.62170428  0.16309527    -0.15900
F1157       F  0.02673725  0.76161004  0.23431807    -0.15900
F1158       F  0.07790716  0.70452828  0.24914681    -0.13600
C1159       C  0.23481426  0.46968043  0.16993016     0.24400
C1160       C  0.19981464  0.48273511  0.15489616    -0.23700
C1161       C  0.18899645  0.47169292  0.11776567     0.19300
C1162       C  0.21316019  0.44837986  0.09574499     0.24400
C1163       C  0.24877054  0.43604703  0.11038169    -0.23600
C1164       C  0.25908274  0.44660177  0.14795810     0.19300
F1165       F  0.29342667  0.43606562  0.16303055    -0.13600
F1166       F  0.24654291  0.48098301  0.20523412    -0.15900
F1167       F  0.20159917  0.43787011  0.06015287    -0.15900
F1168       F  0.15488672  0.48325289  0.10289832    -0.13600
C1169       C  0.23470261  0.66147524  0.13333652     0.24400
C1170       C  0.19428783  0.65887519  0.13417490    -0.23700
C1171       C  0.17272832  0.68995013  0.11986541     0.19300
C1172       C  0.19100501  0.72373400  0.10755087     0.24400
C1173       C  0.23111738  0.72727812  0.10965041    -0.23600
C1174       C  0.25290828  0.69529441  0.12102490     0.19300
F1175       F  0.29170263  0.69761922  0.12245618    -0.13600
F1176       F  0.25649067  0.63229502  0.14745186    -0.15900
F1177       F  0.16929013  0.75411805  0.09620143    -0.15900
F1178       F  0.13389138  0.68941394  0.12212244    -0.13600
C1179       C  0.29495008  0.58487403  0.26661998     0.24400
C1180       C  0.26078342  0.58613898  0.28781123    -0.23700
C1181       C  0.26237894  0.59331299  0.32742350     0.19300
C1182       C  0.29710360  0.60355385  0.34471724     0.24400
C1183       C  0.33062905  0.60691036  0.32249549    -0.23600
C1184       C  0.32964481  0.59539073  0.28381040     0.19300
F1185       F  0.36156663  0.59839771  0.26169431    -0.13600
F1186       F  0.29414341  0.57702778  0.22852361    -0.15900
F1187       F  0.29682817  0.61520671  0.38184544    -0.15900
F1188       F  0.22982070  0.59272069  0.34884394    -0.13600
C1189       C  0.29710927  0.66753311  0.51296644     0.24400
C1190       C  0.25885874  0.67712603  0.50393684    -0.23700
C1191       C  0.25217365  0.69849663  0.47029068     0.19300
C1192       C  0.28198141  0.70626954  0.44430181     0.24400
C1193       C  0.31962800  0.69264624  0.45098285    -0.23600
C1194       C  0.32725039  0.67547390  0.48693763     0.19300
F1195       F  0.36321216  0.66330829  0.49559355    -0.13600
F1196       F  0.30471735  0.64642634  0.54486291    -0.15900
F1197       F  0.27326621  0.72519914  0.41131767    -0.15900
F1198       F  0.21576080  0.70835946  0.46054979    -0.13600
C1199       C  0.00631835  0.71211646  0.54729560     0.24400
C1200       C  0.01115087  0.74391362  0.57144366    -0.23700
C1201       C  0.04837083  0.75177458  0.58497806     0.19300
C1202       C  0.07909628  0.72620968  0.57770957     0.24400
C1203       C  0.07306247  0.69213548  0.55692385    -0.23600
C1204       C  0.03684787  0.68689934  0.53971496     0.19300
F1205       F  0.03013758  0.65584892  0.51731459    -0.13600
F1206       F  0.97081482  0.70311456  0.53435791    -0.15900
F1207       F  0.11365155  0.73303033  0.59405058    -0.15900
F1208       F  0.05394805  0.78159413  0.60925103    -0.13600
C1209       C  0.25219368  0.53943426  0.64302528     0.24400
C1210       C  0.25811282  0.54355344  0.60320160    -0.23700
C1211       C  0.28826784  0.52251665  0.58605658     0.19300
C1212       C  0.31135825  0.49773258  0.60811189     0.24400
C1213       C  0.30474789  0.49316719  0.64776474    -0.23600
C1214       C  0.27500192  0.51471148  0.66484797     0.19300
F1215       F  0.26697663  0.51129886  0.70283259    -0.13600
F1216       F  0.22356314  0.55866276  0.66126743    -0.15900
F1217       F  0.34026481  0.47834721  0.59052218    -0.15900
F1218       F  0.29528943  0.52546278  0.54785786    -0.13600
C1219       C  0.08425790  0.51209091  0.63652769     0.24400
C1220       C  0.08573312  0.55244116  0.63350752    -0.23700
C1221       C  0.05293179  0.57394994  0.64320573     0.19300
C1222       C  0.01828296  0.55529644  0.65133747     0.24400
C1223       C  0.01604326  0.51505960  0.64978812    -0.23600
C1224       C  0.04956579  0.49352153  0.64427033     0.19300
F1225       F  0.04809261  0.45461805  0.64321046    -0.13600
F1226       F  0.11548354  0.49062404  0.62719533    -0.15900
F1227       F  0.98628399  0.57653160  0.65828261    -0.15900
F1228       F  0.05306466  0.61278449  0.63980518    -0.13600
C1229       C  0.09696493  0.57993858  0.40233395     0.24400
C1230       C  0.11683010  0.61015845  0.41936559    -0.23700
C1231       C  0.12864670  0.64196308  0.39821551     0.19300
C1232       C  0.12639795  0.64050436  0.35865835     0.24400
C1233       C  0.11355570  0.60661617  0.34136502    -0.23600
C1234       C  0.09565995  0.57791547  0.36283230     0.19300
F1235       F  0.08139359  0.54609069  0.34570633    -0.13600
F1236       F  0.08374398  0.55009725  0.42367652    -0.15900
F1237       F  0.14241147  0.66910159  0.33753980    -0.15900
F1238       F  0.14619921  0.67198068  0.41547469    -0.13600
C1239       C  0.15037420  0.47604909  0.43735447     0.24400
C1240       C  0.15105294  0.47713622  0.47768919    -0.23700
C1241       C  0.14600164  0.44309308  0.49844076     0.19300
C1242       C  0.13614509  0.40923744  0.47934113     0.24400
C1243       C  0.13125832  0.40895376  0.43917555    -0.23600
C1244       C  0.14049410  0.44215959  0.41815909     0.19300
F1245       F  0.13510892  0.44324172  0.37960813    -0.13600
F1246       F  0.15662985  0.50853713  0.41669757    -0.15900
F1247       F  0.12691409  0.37775883  0.50041984    -0.15900
F1248       F  0.14756526  0.44335811  0.53733411    -0.13600
loop_ 
_geom_bond_atom_site_label_1 
_geom_bond_atom_site_label_2 
_geom_bond_distance 
_geom_bond_site_symmetry_2 
_ccdc_geom_bond_type 
O1           C16   1.249       .  A
O1           Al9   1.857       .  S
C2           O12   1.255       .  A
C2            O3   1.281       .  A
C2         C1220   1.475       .  S
O3           Al5   2.002       .  S
O4            C6   1.264       .  A
O4           Al5   1.883       .  S
Al5          O13   1.945       .  S
Al5          O15   1.999       .  S
Al5          O14   1.775       .  S
C6           O19   1.270       .  A
C6         C1210   1.494       .  S
O7           C17   1.253       .  A
O7           Al9   1.896       .  S
O8           C21   1.249       .  A
O8          Al18   1.832       .  S
Al9          O22   1.922       .  S
Al9          O19   1.940       .  S
Al9          O14   1.766       .  S
O10          C17   1.262       .  A
O10         Al18   1.941       .  S
O11          C20   1.268       .  A
O11         Al18   1.933       .  S
O12         Al18   1.852       .  S
O13          C20   1.272       .  A
O14         Al18   1.766       .  S
O15          C16   1.275       .  A
C16        C1190   1.492       .  S
C17        C1240   1.475       .  S
C20        C1203   1.503       .  S
C21          O22   1.272       .  A
C21        C1230   1.422       .  S
O23          C38   1.246       .  A
O23         Al31   1.851       .  S
C24          O34   1.258       .  A
C24          O25   1.286       .  A
C24        C1170   1.489       .  S
O25         Al27   2.015       .  S
O26          C28   1.262       .  A
O26         Al27   1.885       .  S
Al27         O35   1.936       .  S
Al27         O37   2.011       .  S
Al27         O36   1.774       .  S
C28          O41   1.267       .  A
C28        C1160   1.471       .  S
O29          C39   1.254       .  A
O29         Al31   1.899       .  S
O30          C43   1.250       .  A
O30         Al40   1.833       .  S
Al31         O44   1.911       .  S
Al31         O41   1.916       .  S
Al31         O36   1.767       .  S
O32          C39   1.263       .  A
O32         Al40   1.942       .  S
O33          C42   1.267       .  A
O33         Al40   1.935       .  S
O34         Al40   1.866       .  S
O35          C42   1.268       .  A
O36         Al40   1.771       .  S
O37          C38   1.278       .  A
C38        C1140   1.494       .  S
C39        C1180   1.477       .  S
C42        C1150   1.502       .  S
C43          O44   1.270       .  A
C43        C1233   1.430       .  S
O45          C60   1.247       .  A
O45         Al53   1.847       .  S
C46          O56   1.258       .  A
C46          O47   1.279       .  A
C46        C1113   1.468       .  S
O47         Al49   1.983       .  S
O48          C50   1.263       .  A
O48         Al49   1.897       .  S
Al49         O57   1.950       .  S
Al49         O59   1.993       .  S
Al49         O58   1.777       .  S
C50          O63   1.264       .  A
C50        C1103   1.486       .  S
O51          C61   1.253       .  A
O51         Al53   1.896       .  S
O52          C65   1.253       .  A
O52         Al62   1.844       .  S
Al53         O66   1.907       .  S
Al53         O63   1.912       .  S
Al53         O58   1.767       .  S
O54          C61   1.262       .  A
O54         Al62   1.939       .  S
O55          C64   1.265       .  A
O55         Al62   1.923       .  S
O56         Al62   1.852       .  S
O57          C64   1.271       .  A
O58         Al62   1.770       .  S
O59          C60   1.275       .  A
C60        C1080   1.483       .  S
C61        C1130   1.472       .  S
C64        C1093   1.503       .  S
C65          O66   1.269       .  A
C65        C1123   1.429       .  S
O67          C82   1.250       .  A
O67         Al75   1.858       .  S
C68          O78   1.253       .  A
C68          O69   1.279       .  A
C68        C1060   1.476       .  S
O69         Al71   1.993       .  S
O70          C72   1.263       .  A
O70         Al71   1.886       .  S
Al71         O79   1.948       .  S
Al71         O81   1.992       .  S
Al71         O80   1.777       .  S
C72          O85   1.266       .  A
C72        C1050   1.478       .  S
O73          C83   1.253       .  A
O73         Al75   1.883       .  S
O74          C87   1.250       .  A
O74         Al84   1.844       .  S
Al75         O88   1.909       .  S
Al75         O85   1.921       .  S
Al75         O80   1.767       .  S
O76          C83   1.263       .  A
O76         Al84   1.934       .  S
O77          C86   1.267       .  A
O77         Al84   1.925       .  S
O78         Al84   1.841       .  S
O79          C86   1.271       .  A
O80         Al84   1.767       .  S
O81          C82   1.274       .  A
C82        C1030   1.485       .  S
C83        C1073   1.465       .  S
C86        C1043   1.503       .  S
C87          O88   1.267       .  A
C87        C1120   1.424       .  S
O89         C104   1.248       .  A
O89         Al97   1.831       .  S
C90         O100   1.260       .  A
C90          O91   1.284       .  A
C90        C1000   1.472       .  S
O91         Al93   1.989       .  S
O92          C94   1.262       .  A
O92         Al93   1.906       .  S
Al93        O101   1.957       .  S
Al93        O103   1.987       .  S
Al93        O102   1.774       .  S
C94         O107   1.257       .  A
C94         C990   1.483       .  S
O95         C105   1.250       .  A
O95         Al97   1.892       .  S
O96         C109   1.258       .  A
O96        Al106   1.845       .  S
Al97        O110   1.912       .  S
Al97        O107   1.880       .  S
Al97        O102   1.766       .  S
O98         C105   1.259       .  A
O98        Al106   1.932       .  S
O99         C108   1.258       .  A
O99        Al106   1.908       .  S
O100       Al106   1.836       .  S
O101        C108   1.268       .  A
O102       Al106   1.774       .  S
O103        C104   1.276       .  A
C104        C973   1.480       .  S
C105       C1020   1.464       .  S
C108        C980   1.507       .  S
C109        O110   1.273       .  A
C109       C1010   1.435       .  S
O111        C126   1.250       .  A
O111       Al119   1.864       .  S
C112        O122   1.253       .  A
C112        O113   1.281       .  A
C112        C950   1.484       .  S
O113       Al115   2.009       .  S
O114        C116   1.264       .  A
O114       Al115   1.884       .  S
Al115       O123   1.947       .  S
Al115       O125   2.013       .  S
Al115       O124   1.778       .  S
C116        O129   1.266       .  A
C116        C943   1.479       .  S
O117        C127   1.257       .  A
O117       Al119   1.898       .  S
O118        C131   1.251       .  A
O118       Al128   1.854       .  S
Al119       O132   1.891       .  S
Al119       O129   1.918       .  S
Al119       O124   1.771       .  S
O120        C127   1.264       .  A
O120       Al128   1.933       .  S
O121        C130   1.268       .  A
O121       Al128   1.930       .  S
O122       Al128   1.857       .  S
O123        C130   1.273       .  A
O124       Al128   1.763       .  S
O125        C126   1.278       .  A
C126        C920   1.496       .  S
C127        C963   1.475       .  S
C130        C933   1.506       .  S
C131        O132   1.264       .  A
C131       C1013   1.423       .  S
O133        C148   1.247       .  A
O133       Al141   1.851       .  S
C134        O144   1.255       .  A
C134        O135   1.279       .  A
C134        C900   1.469       .  S
O135       Al137   1.986       .  S
O136        C138   1.263       .  A
O136       Al137   1.885       .  S
Al137       O145   1.960       .  S
Al137       O147   1.997       .  S
Al137       O146   1.781       .  S
C138        O151   1.267       .  A
C138        C893   1.484       .  S
O139        C149   1.253       .  A
O139       Al141   1.893       .  S
O140        C153   1.253       .  A
O140       Al150   1.846       .  S
Al141       O154   1.907       .  S
Al141       O151   1.923       .  S
Al141       O146   1.767       .  S
O142        C149   1.260       .  A
O142       Al150   1.928       .  S
O143        C152   1.268       .  A
O143       Al150   1.931       .  S
O144       Al150   1.855       .  S
O145        C152   1.276       .  A
O146       Al150   1.766       .  S
O147        C148   1.274       .  A
C148        C870   1.488       .  S
C149       C1063   1.470   1_565  S
C152        C880   1.514       .  S
C153        O154   1.269       .  A
C153        C910   1.429       .  S
O155        C170   1.248       .  A
O155       Al163   1.857       .  S
C156        O166   1.256       .  A
C156        O157   1.278       .  A
C156        C850   1.476       .  S
O157       Al159   1.987       .  S
O158        C160   1.262       .  A
O158       Al159   1.879       .  S
Al159       O167   1.935       .  S
Al159       O169   1.992       .  S
Al159       O168   1.780       .  S
C160        O173   1.269       .  A
C160        C840   1.480       .  S
O161        C171   1.255       .  A
O161       Al163   1.899       .  S
O162        C175   1.252       .  A
O162       Al172   1.845       .  S
Al163       O176   1.906       .  S
Al163       O173   1.926       .  S
Al163       O168   1.767       .  S
O164        C171   1.262       .  A
O164       Al172   1.932       .  S
O165        C174   1.269       .  A
O165       Al172   1.935       .  S
O166       Al172   1.862       .  S
O167        C174   1.271       .  A
O168       Al172   1.768       .  S
O169        C170   1.273       .  A
C170       C1040   1.485   1_565  S
C171        C863   1.474       .  S
C174        C830   1.502       .  S
C175        O176   1.267       .  A
C175        C913   1.433       .  S
O177        C192   1.252       .  A
O177       Al185   1.873       .  S
C178        O188   1.255       .  A
C178        O179   1.279       .  A
C178        C810   1.475       .  S
O179       Al181   1.991       .  S
O180        C182   1.262       .  A
O180       Al181   1.889       .  S
Al181       O189   1.955       .  S
Al181       O191   1.986       .  S
Al181       O190   1.783       .  S
C182        O195   1.268       .  A
C182        C800   1.489   1_554  S
O183        C193   1.258       .  A
O183       Al185   1.915       .  S
O184        C197   1.253       .  A
O184       Al194   1.852       .  S
Al185       O198   1.916       .  S
Al185       O195   1.929       .  S
Al185       O190   1.772       .  S
O186        C193   1.263       .  A
O186       Al194   1.940       .  S
O187        C196   1.266       .  A
O187       Al194   1.930       .  S
O188       Al194   1.839       .  S
O189        C196   1.272       .  A
O190       Al194   1.770       .  S
O191        C192   1.274       .  A
C192        C780   1.490   1_554  S
C193       C1173   1.485       .  S
C196        C790   1.513       .  S
C197        O198   1.270       .  A
C197        C823   1.431       .  S
O199        C214   1.247   1_455  A
O199       Al207   1.845   1_455  S
C200        O210   1.259       .  A
C200        O201   1.281       .  A
C200        C763   1.473       .  S
O201       Al203   1.990       .  S
O202        C204   1.263       .  A
O202       Al203   1.887       .  S
Al203       O211   1.948       .  S
Al203       O213   1.990       .  S
Al203       O212   1.779       .  S
C204        O217   1.265       .  A
C204        C750   1.486       .  S
O205        C215   1.253   1_655  A
O205       Al207   1.901       .  S
O206        C219   1.255       .  A
O206       Al216   1.845   1_455  S
Al207       O220   1.918   1_655  S
Al207       O217   1.919       .  S
Al207       O212   1.768       .  S
O208        C215   1.260       .  A
O208       Al216   1.937   1_455  S
O209        C218   1.263       .  A
O209       Al216   1.923       .  S
O210       Al216   1.851       .  S
O211        C218   1.270       .  A
O212       Al216   1.771       .  S
O213        C214   1.274       .  A
C214       C1153   1.484       .  S
C215        C770   1.476   1_554  S
C218        C743   1.505       .  S
C219        O220   1.273       .  A
C219        C820   1.441       .  S
O221        C236   1.250   1_565  A
O221       Al229   1.841       .  S
C222        O232   1.258       .  A
C222        O223   1.283       .  A
C222       C1070   1.472       .  S
O223       Al225   1.991       .  S
O224        C226   1.260       .  A
O224       Al225   1.907       .  S
Al225       O233   1.937       .  S
Al225       O235   2.002       .  S
Al225       O234   1.777       .  S
C226        O239   1.255       .  A
C226        C940   1.482       .  S
O227        C237   1.253   1_545  A
O227       Al229   1.895   1_545  S
O228        C241   1.256       .  A
O228       Al238   1.850   1_565  S
Al229       O242   1.894       .  S
Al229       O239   1.871   1_565  S
Al229       O234   1.768   1_565  S
O230        C237   1.264       .  A
O230       Al238   1.944   1_565  S
O231        C240   1.261       .  A
O231       Al238   1.922       .  S
O232       Al238   1.836       .  S
O233        C240   1.266       .  A
O234       Al238   1.777       .  S
O235        C236   1.280       .  A
C236        C793   1.489   1_545  S
C237        C903   1.468       .  S
C240       C1083   1.502       .  S
C241        O242   1.266       .  A
C241        C733   1.429       .  S
O243        C258   1.250       .  A
O243       Al251   1.868       .  S
C244        O254   1.255       .  A
C244        O245   1.278       .  A
C244       C1183   1.476       .  S
O245       Al247   1.992       .  S
O246        C248   1.266       .  A
O246       Al247   1.895       .  S
Al247       O255   1.946       .  S
Al247       O257   2.006       .  S
Al247       O256   1.777       .  S
C248        O261   1.266       .  A
C248        C993   1.476       .  S
O249        C259   1.253       .  A
O249       Al251   1.887       .  S
O250        C263   1.250       .  A
O250       Al260   1.844       .  S
Al251       O264   1.890       .  S
Al251       O261   1.912       .  S
Al251       O256   1.768       .  S
O252        C259   1.266       .  A
O252       Al260   1.946       .  S
O253        C262   1.272       .  A
O253       Al260   1.943       .  S
O254       Al260   1.867       .  S
O255        C262   1.275       .  A
O256       Al260   1.766       .  S
O257        C258   1.276       .  A
C258        C883   1.497       .  S
C259        C813   1.474       .  S
C262       C1193   1.510       .  S
C263        O264   1.264       .  A
C263        C730   1.418       .  S
O265        C280   1.247       .  A
O265       Al273   1.842       .  S
C266        O276   1.257       .  A
C266        O267   1.281       .  A
C266        C710   1.470       .  S
O267       Al269   1.986       .  S
O268        C270   1.261       .  A
O268       Al269   1.898       .  S
Al269       O277   1.952       .  S
Al269       O279   1.988       .  S
Al269       O278   1.779       .  S
C270        O283   1.265       .  A
C270        C803   1.492       .  S
O271        C281   1.252       .  A
O271       Al273   1.890       .  S
O272        C285   1.256       .  A
O272       Al282   1.849       .  S
Al273       O286   1.912       .  S
Al273       O283   1.912       .  S
Al273       O278   1.773       .  S
O274        C281   1.258       .  A
O274       Al282   1.920       .  S
O275        C284   1.261       .  A
O275       Al282   1.918       .  S
O276       Al282   1.850       .  S
O277        C284   1.270       .  A
O278       Al282   1.775       .  S
O279        C280   1.275       .  A
C280        C833   1.483       .  S
C281       C1003   1.463   1_556  S
C284        C703   1.508       .  S
C285        O286   1.270       .  A
C285        C720   1.434       .  S
O287        C302   1.250       .  A
O287       Al295   1.857       .  S
C288        O298   1.254       .  A
C288        O289   1.280       .  A
C288        C690   1.475       .  S
O289       Al291   1.995       .  S
O290        C292   1.264       .  A
O290       Al291   1.887       .  S
Al291       O299   1.944       .  S
Al291       O301   1.995       .  S
Al291       O300   1.780       .  S
C292        O305   1.265       .  A
C292        C753   1.479   1_556  S
O293        C303   1.254       .  A
O293       Al295   1.894       .  S
O294        C307   1.252       .  A
O294       Al304   1.847       .  S
Al295       O308   1.910       .  S
Al295       O305   1.923       .  S
Al295       O300   1.769       .  S
O296        C303   1.262       .  A
O296       Al304   1.935       .  S
O297        C306   1.267       .  A
O297       Al304   1.933       .  S
O298       Al304   1.846       .  S
O299        C306   1.271       .  A
O300       Al304   1.770       .  S
O301        C302   1.275       .  A
C302        C983   1.488   1_556  S
C303        C853   1.471       .  S
C306        C680   1.504       .  S
C307        O308   1.268       .  A
C307        C723   1.428       .  S
O309        C324   1.251   1_556  A
O309       Al317   1.869   1_556  S
C310        O320   1.255       .  A
C310        O311   1.275       .  A
C310       C1023   1.462       .  S
O311       Al313   1.974       .  S
O312        C314   1.263       .  A
O312       Al313   1.884       .  S
Al313       O321   1.946       .  S
Al313       O323   1.981       .  S
Al313       O322   1.783       .  S
C314        O327   1.268       .  A
C314       C1163   1.480       .  S
O315        C325   1.253       .  A
O315       Al317   1.901       .  S
O316        C329   1.253       .  A
O316       Al326   1.842   1_556  S
Al317       O330   1.914   1_554  S
Al317       O327   1.923       .  S
Al317       O322   1.769       .  S
O318        C325   1.260       .  A
O318       Al326   1.931       .  S
O319        C328   1.270       .  A
O319       Al326   1.943       .  S
O320       Al326   1.860       .  S
O321        C328   1.273       .  A
O322       Al326   1.771       .  S
O323        C324   1.271       .  A
C324        C660   1.490       .  S
C325        C713   1.475   1_554  S
C328        C923   1.510       .  S
C329        O330   1.270       .  A
C329        C670   1.428       .  S
O331        C346   1.248       .  A
O331       Al339   1.842       .  S
C332        O342   1.259       .  A
C332        O333   1.284       .  A
C332       C1133   1.470       .  S
O333       Al335   1.994       .  S
O334        C336   1.264       .  A
O334       Al335   1.915       .  S
Al335       O343   1.953       .  S
Al335       O345   1.997       .  S
Al335       O344   1.779       .  S
C336        O349   1.260       .  A
C336       C1213   1.492       .  S
O337        C347   1.252       .  A
O337       Al339   1.898       .  S
O338        C351   1.257       .  A
O338       Al348   1.855       .  S
Al339       O352   1.913       .  S
Al339       O349   1.897       .  S
Al339       O344   1.768       .  S
O340        C347   1.260       .  A
O340       Al348   1.933       .  S
O341        C350   1.260       .  A
O341       Al348   1.914       .  S
O342       Al348   1.852       .  S
O343        C350   1.269       .  A
O344       Al348   1.779       .  S
O345        C346   1.278       .  A
C346        C700   1.488       .  S
C347        C650   1.469       .  S
C350       C1033   1.504       .  S
C351        O352   1.271       .  A
C351        C673   1.435       .  S
O353        C368   1.246       .  A
O353       Al361   1.844       .  S
C354        O364   1.259       .  A
C354        O355   1.280       .  A
C354        C653   1.468       .  S
O355       Al357   1.983       .  S
O356        C358   1.265       .  A
O356       Al357   1.906       .  S
Al357       O365   1.964       .  S
Al357       O367   1.998       .  S
Al357       O366   1.777       .  S
C358        O371   1.262       .  A
C358        C630   1.490       .  S
O359        C369   1.251       .  A
O359       Al361   1.892       .  S
O360        C373   1.255       .  A
O360       Al370   1.846       .  S
Al361       O374   1.900       .  S
Al361       O371   1.903       .  S
Al361       O366   1.769       .  S
O362        C369   1.260       .  A
O362       Al370   1.933       .  S
O363        C372   1.263       .  A
O363       Al370   1.917       .  S
O364       Al370   1.860       .  S
O365        C372   1.274       .  A
O366       Al370   1.772       .  S
O367        C368   1.276       .  A
C368        C620   1.487   1_455  S
C369       C1110   1.468       .  S
C372        C663   1.510       .  S
C373        O374   1.269       .  A
C373        C640   1.425       .  S
O375        C390   1.248       .  A
O375       Al383   1.858       .  S
C376        O386   1.255       .  A
C376        O377   1.280       .  A
C376        C773   1.479       .  S
O377       Al379   1.997       .  S
O378        C380   1.265       .  A
O378       Al379   1.896       .  S
Al379       O387   1.948       .  S
Al379       O389   2.002       .  S
Al379       O388   1.776       .  S
C380        O393   1.267       .  A
C380        C600   1.488       .  S
O381        C391   1.254       .  A
O381       Al383   1.889       .  S
O382        C395   1.250       .  A
O382       Al392   1.838   1_545  S
Al383       O396   1.906   1_565  S
Al383       O393   1.920       .  S
Al383       O388   1.768       .  S
O384        C391   1.263       .  A
O384       Al392   1.934       .  S
O385        C394   1.268       .  A
O385       Al392   1.931       .  S
O386       Al392   1.856       .  S
O387        C394   1.273       .  A
O388       Al392   1.765       .  S
O389        C390   1.276       .  A
C390       C1090   1.488       .  S
C391        C610   1.467   1_465  S
C394        C783   1.504       .  S
C395        O396   1.266       .  A
C395        C643   1.421       .  S
O397        C412   1.248       .  A
O397       Al405   1.858       .  S
C398        O408   1.256       .  A
C398        O399   1.278       .  A
C398        C860   1.478       .  S
O399       Al401   1.989       .  S
O400        C402   1.264       .  A
O400       Al401   1.886       .  S
Al401       O409   1.943       .  S
Al401       O411   1.995       .  S
Al401       O410   1.781       .  S
C402        O415   1.269       .  A
C402        C603   1.481   1_655  S
O403        C413   1.253       .  A
O403       Al405   1.889       .  S
O404        C417   1.251       .  A
O404       Al414   1.846       .  S
Al405       O418   1.905       .  S
Al405       O415   1.927       .  S
Al405       O410   1.768       .  S
O406        C413   1.264       .  A
O406       Al414   1.941       .  S
O407        C416   1.270       .  A
O407       Al414   1.939       .  S
O408       Al414   1.860       .  S
O409        C416   1.272       .  A
O410       Al414   1.767       .  S
O411        C412   1.274       .  A
C412       C1200   1.487   1_655  S
C413        C693   1.474       .  S
C416        C873   1.507       .  S
C417        O418   1.267       .  A
C417        C593   1.426       .  S
O419        C434   1.247       .  A
O419       Al427   1.846       .  S
C420        O430   1.259       .  A
C420        O421   1.281       .  A
C420        C580   1.473       .  S
O421       Al423   1.985       .  S
O422        C424   1.264       .  A
O422       Al423   1.907       .  S
Al423       O431   1.964       .  S
Al423       O433   1.998       .  S
Al423       O432   1.777       .  S
C424        O437   1.262       .  A
C424        C633   1.487       .  S
O425        C435   1.251       .  A
O425       Al427   1.893       .  S
O426        C439   1.255       .  A
O426       Al436   1.846       .  S
Al427       O440   1.905       .  S
Al427       O437   1.904       .  S
Al427       O432   1.770       .  S
O428        C435   1.262       .  A
O428       Al436   1.945       .  S
O429        C438   1.264       .  A
O429       Al436   1.931       .  S
O430       Al436   1.849       .  S
O431        C438   1.273       .  A
O432       Al436   1.775       .  S
O433        C434   1.277       .  A
C434        C683   1.488       .  S
C435       C1223   1.473   1_655  S
C438        C570   1.518       .  S
C439        O440   1.269       .  A
C439        C590   1.429       .  S
O441        C456   1.250   1_655  A
O441       Al449   1.860   1_655  S
C442        O452   1.253       .  A
C442        O443   1.279       .  A
C442       C1243   1.477       .  S
O443       Al445   1.997       .  S
O444        C446   1.264       .  A
O444       Al445   1.901       .  S
Al445       O453   1.945       .  S
Al445       O455   2.008       .  S
Al445       O454   1.776       .  S
C446        O459   1.265       .  A
C446       C1100   1.489       .  S
O447        C457   1.255       .  A
O447       Al449   1.892       .  S
O448        C461   1.249       .  A
O448       Al458   1.835   1_655  S
Al449       O462   1.903   1_455  S
Al449       O459   1.915       .  S
Al449       O454   1.774       .  S
O450        C457   1.265       .  A
O450       Al458   1.937       .  S
O451        C460   1.270       .  A
O451       Al458   1.946       .  S
O452       Al458   1.850       .  S
O453        C460   1.272       .  A
O454       Al458   1.766       .  S
O455        C456   1.278       .  A
C456        C553   1.494       .  S
C457        C583   1.470   1_455  S
C460       C1143   1.513       .  S
C461        O462   1.264       .  A
C461        C560   1.417       .  S
O463        C478   1.247       .  A
O463       Al471   1.845       .  S
C464        O474   1.259       .  A
C464        O465   1.287       .  A
C464        C960   1.484       .  S
O465       Al467   2.012       .  S
O466        C468   1.261       .  A
O466       Al467   1.900       .  S
Al467       O475   1.948       .  S
Al467       O477   2.010       .  S
Al467       O476   1.773       .  S
C468        O481   1.260       .  A
C468       C1053   1.484       .  S
O469        C479   1.252       .  A
O469       Al471   1.898       .  S
O470        C483   1.256       .  A
O470       Al480   1.845       .  S
Al471       O484   1.897       .  S
Al471       O481   1.889       .  S
Al471       O476   1.769       .  S
O472        C479   1.260       .  A
O472       Al480   1.936       .  S
O473        C482   1.260       .  A
O473       Al480   1.917       .  S
O474       Al480   1.842       .  S
O475        C482   1.267       .  A
O476       Al480   1.777       .  S
O477        C478   1.280       .  A
C478        C573   1.496       .  S
C479        C543   1.470       .  S
C482        C970   1.505       .  S
C483        O484   1.270       .  A
C483        C563   1.423       .  S
O485        C500   1.248       .  A
O485       Al493   1.851       .  S
C486        O496   1.258       .  A
C486        O487   1.280       .  A
C486        C540   1.471       .  S
O487       Al489   1.987       .  S
O488        C490   1.263       .  A
O488       Al489   1.897       .  S
Al489       O497   1.954       .  S
Al489       O499   1.994       .  S
Al489       O498   1.780       .  S
C490        O503   1.262       .  A
C490        C890   1.484   1_545  S
O491        C501   1.256       .  A
O491       Al493   1.909       .  S
O492        C505   1.255       .  A
O492       Al502   1.846       .  S
Al493       O506   1.899       .  S
Al493       O503   1.903       .  S
Al493       O498   1.769       .  S
O494        C501   1.263       .  A
O494       Al502   1.943       .  S
O495        C504   1.266       .  A
O495       Al502   1.932       .  S
O496       Al502   1.853       .  S
O497        C504   1.272       .  A
O498       Al502   1.769       .  S
O499        C500   1.275       .  A
C500        C740   1.485   1_545  S
C501        C953   1.482       .  S
C504        C550   1.513       .  S
C505        O506   1.268       .  A
C505        C530   1.430       .  S
O507        C522   1.249   1_554  A
O507       Al515   1.853       .  S
C508        O518   1.254       .  A
C508        O509   1.280       .  A
C508        C613   1.472       .  S
O509       Al511   1.992       .  S
O510        C512   1.261       .  A
O510       Al511   1.880       .  S
Al511       O519   1.939       .  S
Al511       O521   1.998       .  S
Al511       O520   1.775       .  S
C512        O525   1.267       .  A
C512        C843   1.484       .  S
O513        C523   1.254   1_556  A
O513       Al515   1.891   1_556  S
O514        C527   1.250       .  A
O514       Al524   1.843   1_554  S
Al515       O528   1.911       .  S
Al515       O525   1.927   1_554  S
Al515       O520   1.766   1_554  S
O516        C523   1.264       .  A
O516       Al524   1.943   1_554  S
O517        C526   1.268       .  A
O517       Al524   1.936       .  S
O518       Al524   1.844       .  S
O519        C526   1.270       .  A
O520       Al524   1.768       .  S
O521        C522   1.276       .  A
C522        C930   1.487       .  S
C523        C760   1.471   1_545  S
C526        C623   1.504       .  S
C527        O528   1.269       .  A
C527        C533   1.422       .  S
C529        C530   1.402       .  A
C529        C534   1.386       .  A
C529        F536   1.358       .  S
C530        C531   1.398       .  A
C531        C532   1.379       .  A
C531        F538   1.359       .  S
C532        C533   1.396       .  A
C532        F537   1.359       .  S
C533        C534   1.395       .  A
C534        F535   1.358       .  S
C539        C540   1.405       .  A
C539        C544   1.402       .  A
C539        F546   1.358       .  S
C540        C541   1.410       .  A
C541        C542   1.399       .  A
C541        F548   1.358       .  S
C542        C543   1.399       .  A
C542        F547   1.357       .  S
C543        C544   1.406       .  A
C544        F545   1.358       .  S
C549        C550   1.416       .  A
C549        C554   1.406       .  A
C549        F556   1.358       .  S
C550        C551   1.413       .  A
C551        C552   1.417   1_655  A
C551        F558   1.357       .  S
C552        C553   1.412       .  A
C552        F557   1.358       .  S
C553        C554   1.405   1_455  A
C554        F555   1.358       .  S
C559        C560   1.397       .  A
C559        C564   1.379       .  A
C559        F566   1.359       .  S
C560        C561   1.393       .  A
C561        C562   1.382       .  A
C561        F568   1.358       .  S
C562        C563   1.400       .  A
C562        F567   1.359       .  S
C563        C564   1.398       .  A
C564        F565   1.359       .  S
C569        C570   1.411       .  A
C569        C574   1.417       .  A
C569        F576   1.357       .  S
C570        C571   1.418       .  A
C571        C572   1.411       .  A
C571        F578   1.358       .  S
C572        C573   1.407       .  A
C572        F577   1.358       .  S
C573        C574   1.413       .  A
C574        F575   1.357       .  S
C579        C580   1.404       .  A
C579        C584   1.402       .  A
C579        F586   1.358       .  S
C580        C581   1.411       .  A
C581        C582   1.398   1_655  A
C581        F588   1.358   1_655  S
C582        C583   1.398   1_455  A
C582        F587   1.358       .  S
C583        C584   1.408       .  A
C584        F585   1.358       .  S
C589        C590   1.398       .  A
C589        C594   1.383       .  A
C589        F596   1.359       .  S
C590        C591   1.400       .  A
C591        C592   1.384       .  A
C591        F598   1.359       .  S
C592        C593   1.396       .  A
C592        F597   1.358       .  S
C593        C594   1.398       .  A
C594        F595   1.359       .  S
C599        C600   1.410       .  A
C599        C604   1.398       .  A
C599        F606   1.358       .  S
C600        C601   1.412       .  A
C601        C602   1.398       .  A
C601        F608   1.358       .  S
C602        C603   1.407       .  A
C602        F607   1.358   1_455  S
C603        C604   1.407       .  A
C604        F605   1.358       .  S
C609        C610   1.398   1_565  A
C609        C614   1.399   1_565  A
C609        F616   1.358       .  S
C610        C611   1.406       .  A
C611        C612   1.401       .  A
C611        F618   1.358   1_655  S
C612        C613   1.404       .  A
C612        F617   1.358       .  S
C613        C614   1.413       .  A
C614        F615   1.358   1_545  S
C619        C620   1.413       .  A
C619        C624   1.412       .  A
C619        F626   1.358       .  S
C620        C621   1.406       .  A
C621        C622   1.407       .  A
C621        F628   1.357   1_655  S
C622        C623   1.413       .  A
C622        F627   1.358       .  S
C623        C624   1.409       .  A
C624        F625   1.358       .  S
C629        C630   1.408       .  A
C629        C634   1.399   1_455  A
C629        F636   1.358       .  S
C630        C631   1.413   1_455  A
C631        C632   1.400       .  A
C631        F638   1.358       .  S
C632        C633   1.406       .  A
C632        F637   1.358       .  S
C633        C634   1.411       .  A
C634        F635   1.358       .  S
C639        C640   1.401       .  A
C639        C644   1.383       .  A
C639        F646   1.359       .  S
C640        C641   1.397       .  A
C641        C642   1.381       .  A
C641        F648   1.359       .  S
C642        C643   1.399       .  A
C642        F647   1.359       .  S
C643        C644   1.394       .  A
C644        F645   1.358       .  S
C649        C650   1.405       .  A
C649        C654   1.399       .  A
C649        F656   1.359       .  S
C650        C651   1.401       .  A
C651        C652   1.401       .  A
C651        F658   1.358       .  S
C652        C653   1.408       .  A
C652        F657   1.358       .  S
C653        C654   1.404       .  A
C654        F655   1.358       .  S
C659        C660   1.401   1_556  A
C659        C664   1.404       .  A
C659        F666   1.358       .  S
C660        C661   1.412       .  A
C661        C662   1.415   1_554  A
C661        F668   1.358       .  S
C662        C663   1.410       .  A
C662        F667   1.357       .  S
C663        C664   1.418       .  A
C664        F665   1.358       .  S
C669        C670   1.397       .  A
C669        C674   1.383       .  A
C669        F676   1.359       .  S
C670        C671   1.396       .  A
C671        C672   1.387       .  A
C671        F678   1.358       .  S
C672        C673   1.402       .  A
C672        F677   1.358       .  S
C673        C674   1.399       .  A
C674        F675   1.358       .  S
C679        C680   1.414       .  A
C679        C684   1.408       .  A
C679        F686   1.358       .  S
C680        C681   1.408       .  A
C681        C682   1.412       .  A
C681        F688   1.357       .  S
C682        C683   1.413       .  A
C682        F687   1.358       .  S
C683        C684   1.406       .  A
C684        F685   1.358       .  S
C689        C690   1.404       .  A
C689        C694   1.405       .  A
C689        F696   1.358       .  S
C690        C691   1.412       .  A
C691        C692   1.400       .  A
C691        F698   1.358       .  S
C692        C693   1.398       .  A
C692        F697   1.358       .  S
C693        C694   1.408       .  A
C694        F695   1.358       .  S
C699        C700   1.412       .  A
C699        C704   1.413       .  A
C699        F706   1.358       .  S
C700        C701   1.405       .  A
C701        C702   1.406       .  A
C701        F708   1.358       .  S
C702        C703   1.416       .  A
C702        F707   1.358       .  S
C703        C704   1.410       .  A
C704        F705   1.357       .  S
C709        C710   1.411       .  A
C709        C714   1.403   1_556  A
C709        F716   1.358   1_556  S
C710        C711   1.402       .  A
C711        C712   1.400       .  A
C711        F718   1.358       .  S
C712        C713   1.407       .  A
C712        F717   1.357       .  S
C713        C714   1.402   1_556  A
C714        F715   1.357       .  S
C719        C720   1.398       .  A
C719        C724   1.384       .  A
C719        F726   1.358       .  S
C720        C721   1.402       .  A
C721        C722   1.386       .  A
C721        F728   1.358       .  S
C722        C723   1.395       .  A
C722        F727   1.358       .  S
C723        C724   1.399       .  A
C724        F725   1.359       .  S
C729        C730   1.394       .  A
C729        C734   1.377       .  A
C729        F736   1.359       .  S
C730        C731   1.397       .  A
C731        C732   1.384       .  A
C731        F738   1.359       .  S
C732        C733   1.400       .  A
C732        F737   1.359       .  S
C733        C734   1.400       .  A
C734        F735   1.358       .  S
C739        C740   1.404       .  A
C739        C744   1.404       .  A
C739        F746   1.358   1_565  S
C740        C741   1.412       .  A
C741        C742   1.413       .  A
C741        F748   1.358       .  S
C742        C743   1.410       .  A
C742        F747   1.357       .  S
C743        C744   1.415       .  A
C744        F745   1.358       .  S
C749        C750   1.411       .  A
C749        C754   1.399       .  A
C749        F756   1.359       .  S
C750        C751   1.411       .  A
C751        C752   1.398       .  A
C751        F758   1.357       .  S
C752        C753   1.405       .  A
C752        F757   1.359       .  S
C753        C754   1.407       .  A
C754        F755   1.358       .  S
C759        C760   1.399       .  A
C759        C764   1.399       .  A
C759        F766   1.357   1_554  S
C760        C761   1.407       .  A
C761        C762   1.403       .  A
C761        F768   1.358       .  S
C762        C763   1.404       .  A
C762        F767   1.358       .  S
C763        C764   1.411       .  A
C764        F765   1.358       .  S
C769        C770   1.407       .  A
C769        C774   1.405       .  A
C769        F776   1.358   1_556  S
C770        C771   1.400       .  A
C771        C772   1.401       .  A
C771        F778   1.358   1_455  S
C772        C773   1.412       .  A
C772        F777   1.358       .  S
C773        C774   1.406       .  A
C774        F775   1.358       .  S
C779        C780   1.405       .  A
C779        C784   1.407       .  A
C779        F786   1.358   1_556  S
C780        C781   1.411       .  A
C781        C782   1.412       .  A
C781        F788   1.357       .  S
C782        C783   1.408       .  A
C782        F787   1.357       .  S
C783        C784   1.414       .  A
C784        F785   1.358       .  S
C789        C790   1.416       .  A
C789        C794   1.406       .  A
C789        F796   1.358       .  S
C790        C791   1.412       .  A
C791        C792   1.416   1_565  A
C791        F798   1.357       .  S
C792        C793   1.412   1_545  A
C792        F797   1.358       .  S
C793        C794   1.405       .  A
C794        F795   1.358       .  S
C799        C800   1.410       .  A
C799        C804   1.399       .  A
C799        F806   1.358   1_556  S
C800        C801   1.408       .  A
C801        C802   1.401       .  A
C801        F808   1.358       .  S
C802        C803   1.412       .  A
C802        F807   1.357       .  S
C803        C804   1.410       .  A
C804        F805   1.358       .  S
C809        C810   1.412       .  A
C809        C814   1.399       .  A
C809        F816   1.358       .  S
C810        C811   1.403       .  A
C811        C812   1.403       .  A
C811        F818   1.358       .  S
C812        C813   1.409       .  A
C812        F817   1.358       .  S
C813        C814   1.398       .  A
C814        F815   1.357       .  S
C819        C820   1.397       .  A
C819        C824   1.382       .  A
C819        F826   1.359       .  S
C820        C821   1.406       .  A
C821        C822   1.388       .  A
C821        F828   1.358       .  S
C822        C823   1.394       .  A
C822        F827   1.358       .  S
C823        C824   1.399       .  A
C824        F825   1.358       .  S
C829        C830   1.409       .  A
C829        C834   1.410       .  A
C829        F836   1.357       .  S
C830        C831   1.414       .  A
C831        C832   1.406       .  A
C831        F838   1.358       .  S
C832        C833   1.406       .  A
C832        F837   1.358       .  S
C833        C834   1.410       .  A
C834        F835   1.358       .  S
C839        C840   1.406   1_545  A
C839        C844   1.395       .  A
C839        F846   1.358       .  S
C840        C841   1.409       .  A
C841        C842   1.397   1_565  A
C841        F848   1.358       .  S
C842        C843   1.409       .  A
C842        F847   1.358       .  S
C843        C844   1.411       .  A
C844        F845   1.358       .  S
C849        C850   1.411       .  A
C849        C854   1.401       .  A
C849        F856   1.358       .  S
C850        C851   1.405       .  A
C851        C852   1.402       .  A
C851        F858   1.358       .  S
C852        C853   1.406       .  A
C852        F857   1.358       .  S
C853        C854   1.399       .  A
C854        F855   1.358       .  S
C859        C860   1.406       .  A
C859        C864   1.405       .  A
C859        F866   1.358       .  S
C860        C861   1.411       .  A
C861        C862   1.400       .  A
C861        F868   1.358       .  S
C862        C863   1.400       .  A
C862        F867   1.358       .  S
C863        C864   1.407       .  A
C864        F865   1.358       .  S
C869        C870   1.404       .  A
C869        C874   1.404       .  A
C869        F876   1.358       .  S
C870        C871   1.413       .  A
C871        C872   1.414       .  A
C871        F878   1.358       .  S
C872        C873   1.411       .  A
C872        F877   1.358       .  S
C873        C874   1.414       .  A
C874        F875   1.358       .  S
C879        C880   1.413       .  A
C879        C884   1.418       .  A
C879        F886   1.357       .  S
C880        C881   1.416       .  A
C881        C882   1.405       .  A
C881        F888   1.358       .  S
C882        C883   1.406       .  A
C882        F887   1.358       .  S
C883        C884   1.412       .  A
C884        F885   1.357       .  S
C889        C890   1.410       .  A
C889        C894   1.394       .  A
C889        F896   1.358       .  S
C890        C891   1.408       .  A
C891        C892   1.398       .  A
C891        F898   1.358   1_565  S
C892        C893   1.410       .  A
C892        F897   1.358       .  S
C893        C894   1.409       .  A
C894        F895   1.358       .  S
C899        C900   1.404       .  A
C899        C904   1.399       .  A
C899        F906   1.358       .  S
C900        C901   1.411       .  A
C901        C902   1.400       .  A
C901        F908   1.358       .  S
C902        C903   1.400       .  A
C902        F907   1.358   1_565  S
C903        C904   1.405       .  A
C904        F905   1.358       .  S
C909        C910   1.397       .  A
C909        C914   1.384       .  A
C909        F916   1.358       .  S
C910        C911   1.399       .  A
C911        C912   1.385       .  A
C911        F918   1.359       .  S
C912        C913   1.398       .  A
C912        F917   1.358       .  S
C913        C914   1.400       .  A
C914        F915   1.359       .  S
C919        C920   1.412       .  A
C919        C924   1.416       .  A
C919        F926   1.357       .  S
C920        C921   1.407       .  A
C921        C922   1.408       .  A
C921        F928   1.358       .  S
C922        C923   1.414       .  A
C922        F927   1.358       .  S
C923        C924   1.411       .  A
C924        F925   1.357       .  S
C929        C930   1.404   1_554  A
C929        C934   1.402       .  A
C929        F936   1.358       .  S
C930        C931   1.412       .  A
C931        C932   1.415   1_556  A
C931        F938   1.358       .  S
C932        C933   1.412       .  A
C932        F937   1.357       .  S
C933        C934   1.414       .  A
C934        F935   1.358       .  S
C939        C940   1.408       .  A
C939        C944   1.400       .  A
C939        F946   1.358       .  S
C940        C941   1.412       .  A
C941        C942   1.389       .  A
C941        F948   1.359       .  S
C942        C943   1.404       .  A
C942        F947   1.358       .  S
C943        C944   1.411       .  A
C944        F945   1.358       .  S
C949        C950   1.407       .  A
C949        C954   1.407       .  A
C949        F956   1.358       .  S
C950        C951   1.413       .  A
C951        C952   1.405       .  A
C951        F958   1.358       .  S
C952        C953   1.401       .  A
C952        F957   1.358       .  S
C953        C954   1.408       .  A
C954        F955   1.358       .  S
C959        C960   1.406       .  A
C959        C964   1.408       .  A
C959        F966   1.357       .  S
C960        C961   1.414       .  A
C961        C962   1.398       .  A
C961        F968   1.358       .  S
C962        C963   1.398       .  A
C962        F967   1.358       .  S
C963        C964   1.409       .  A
C964        F965   1.358       .  S
C969        C970   1.416       .  A
C969        C974   1.404       .  A
C969        F976   1.358       .  S
C970        C971   1.410       .  A
C971        C972   1.411       .  A
C971        F978   1.357       .  S
C972        C973   1.410       .  A
C972        F977   1.358       .  S
C973        C974   1.404       .  A
C974        F975   1.359       .  S
C979        C980   1.416       .  A
C979        C984   1.402       .  A
C979        F986   1.358       .  S
C980        C981   1.411       .  A
C981        C982   1.415       .  A
C981        F988   1.357       .  S
C982        C983   1.412       .  A
C982        F987   1.357       .  S
C983        C984   1.404       .  A
C984        F985   1.358   1_554  S
C989        C990   1.413       .  A
C989        C994   1.395       .  A
C989        F996   1.358       .  S
C990        C991   1.407       .  A
C991        C992   1.398       .  A
C991        F998   1.358       .  S
C992        C993   1.410       .  A
C992        F997   1.358       .  S
C993        C994   1.403       .  A
C994        F995   1.358       .  S
C999       C1000   1.413       .  A
C999       C1004   1.394       .  A
C999       F1006   1.359       .  S
C1000      C1001   1.404       .  A
C1001      C1002   1.402       .  A
C1001      F1008   1.358       .  S
C1002      C1003   1.406       .  A
C1002      F1007   1.358   1_554  S
C1003      C1004   1.397       .  A
C1004      F1005   1.358       .  S
C1009      C1010   1.406       .  A
C1009      C1014   1.387       .  A
C1009      F1016   1.359       .  S
C1010      C1011   1.398       .  A
C1011      C1012   1.377       .  A
C1011      F1018   1.359       .  S
C1012      C1013   1.397       .  A
C1012      F1017   1.358       .  S
C1013      C1014   1.394       .  A
C1014      F1015   1.358       .  S
C1019      C1020   1.401       .  A
C1019      C1024   1.399       .  A
C1019      F1026   1.358       .  S
C1020      C1021   1.403       .  A
C1021      C1022   1.396       .  A
C1021      F1028   1.358       .  S
C1022      C1023   1.403       .  A
C1022      F1027   1.358       .  S
C1023      C1024   1.408       .  A
C1024      F1025   1.358       .  S
C1029      C1030   1.402       .  A
C1029      C1034   1.403       .  A
C1029      F1036   1.358       .  S
C1030      C1031   1.412       .  A
C1031      C1032   1.414       .  A
C1031      F1038   1.358       .  S
C1032      C1033   1.410       .  A
C1032      F1037   1.357       .  S
C1033      C1034   1.414       .  A
C1034      F1035   1.358       .  S
C1039      C1040   1.404       .  A
C1039      C1044   1.403       .  A
C1039      F1046   1.358   1_545  S
C1040      C1041   1.412       .  A
C1041      C1042   1.413       .  A
C1041      F1048   1.358       .  S
C1042      C1043   1.409       .  A
C1042      F1047   1.357       .  S
C1043      C1044   1.413       .  A
C1044      F1045   1.358       .  S
C1049      C1050   1.408       .  A
C1049      C1054   1.399       .  A
C1049      F1056   1.358       .  S
C1050      C1051   1.405       .  A
C1051      C1052   1.394       .  A
C1051      F1058   1.358       .  S
C1052      C1053   1.411       .  A
C1052      F1057   1.358       .  S
C1053      C1054   1.409       .  A
C1054      F1055   1.358       .  S
C1059      C1060   1.403       .  A
C1059      C1064   1.404       .  A
C1059      F1066   1.357       .  S
C1060      C1061   1.413       .  A
C1061      C1062   1.398       .  A
C1061      F1068   1.358       .  S
C1062      C1063   1.398       .  A
C1062      F1067   1.358       .  S
C1063      C1064   1.407       .  A
C1064      F1065   1.358   1_545  S
C1069      C1070   1.412       .  A
C1069      C1074   1.395       .  A
C1069      F1076   1.359       .  S
C1070      C1071   1.405       .  A
C1071      C1072   1.403       .  A
C1071      F1078   1.358       .  S
C1072      C1073   1.406       .  A
C1072      F1077   1.358       .  S
C1073      C1074   1.396       .  A
C1074      F1075   1.357       .  S
C1079      C1080   1.404       .  A
C1079      C1084   1.407       .  A
C1079      F1086   1.358       .  S
C1080      C1081   1.411       .  A
C1081      C1082   1.410       .  A
C1081      F1088   1.358       .  S
C1082      C1083   1.409       .  A
C1082      F1087   1.358       .  S
C1083      C1084   1.414       .  A
C1084      F1085   1.358   1_545  S
C1089      C1090   1.413       .  A
C1089      C1094   1.413       .  A
C1089      F1096   1.358       .  S
C1090      C1091   1.404   1_565  A
C1091      C1092   1.406       .  A
C1091      F1098   1.358       .  S
C1092      C1093   1.414       .  A
C1092      F1097   1.358       .  S
C1093      C1094   1.408   1_545  A
C1094      F1095   1.357       .  S
C1099      C1100   1.409       .  A
C1099      C1104   1.399       .  A
C1099      F1106   1.358       .  S
C1100      C1101   1.412       .  A
C1101      C1102   1.397       .  A
C1101      F1108   1.358       .  S
C1102      C1103   1.407       .  A
C1102      F1107   1.358       .  S
C1103      C1104   1.411       .  A
C1104      F1105   1.358       .  S
C1109      C1110   1.406       .  A
C1109      C1114   1.401       .  A
C1109      F1116   1.358       .  S
C1110      C1111   1.399       .  A
C1111      C1112   1.398       .  A
C1111      F1118   1.357       .  S
C1112      C1113   1.409       .  A
C1112      F1117   1.358       .  S
C1113      C1114   1.405       .  A
C1114      F1115   1.359       .  S
C1119      C1120   1.394       .  A
C1119      C1124   1.384       .  A
C1119      F1126   1.358       .  S
C1120      C1121   1.400       .  A
C1121      C1122   1.382       .  A
C1121      F1128   1.359       .  S
C1122      C1123   1.396       .  A
C1122      F1127   1.359       .  S
C1123      C1124   1.401       .  A
C1124      F1125   1.358       .  S
C1129      C1130   1.405       .  A
C1129      C1134   1.401       .  A
C1129      F1136   1.359       .  S
C1130      C1131   1.401       .  A
C1131      C1132   1.402       .  A
C1131      F1138   1.358       .  S
C1132      C1133   1.409       .  A
C1132      F1137   1.358       .  S
C1133      C1134   1.406       .  A
C1134      F1135   1.358       .  S
C1139      C1140   1.409       .  A
C1139      C1144   1.410       .  A
C1139      F1146   1.358       .  S
C1140      C1141   1.411       .  A
C1141      C1142   1.415       .  A
C1141      F1148   1.357       .  S
C1142      C1143   1.411       .  A
C1142      F1147   1.357       .  S
C1143      C1144   1.415       .  A
C1144      F1145   1.358       .  S
C1149      C1150   1.409       .  A
C1149      C1154   1.410   1_455  A
C1149      F1156   1.357       .  S
C1150      C1151   1.413       .  A
C1151      C1152   1.406       .  A
C1151      F1158   1.358       .  S
C1152      C1153   1.406   1_455  A
C1152      F1157   1.358       .  S
C1153      C1154   1.411       .  A
C1154      F1155   1.358       .  S
C1159      C1160   1.403       .  A
C1159      C1164   1.395       .  A
C1159      F1166   1.358       .  S
C1160      C1161   1.405       .  A
C1161      C1162   1.398       .  A
C1161      F1168   1.358       .  S
C1162      C1163   1.409       .  A
C1162      F1167   1.358       .  S
C1163      C1164   1.410       .  A
C1164      F1165   1.358       .  S
C1169      C1170   1.414       .  A
C1169      C1174   1.407       .  A
C1169      F1176   1.358       .  S
C1170      C1171   1.406       .  A
C1171      C1172   1.407       .  A
C1171      F1178   1.358       .  S
C1172      C1173   1.408       .  A
C1172      F1177   1.357       .  S
C1173      C1174   1.403       .  A
C1174      F1175   1.358       .  S
C1179      C1180   1.402       .  A
C1179      C1184   1.403       .  A
C1179      F1186   1.358       .  S
C1180      C1181   1.406       .  A
C1181      C1182   1.403       .  A
C1181      F1188   1.358       .  S
C1182      C1183   1.407       .  A
C1182      F1187   1.358       .  S
C1183      C1184   1.409       .  A
C1184      F1185   1.358       .  S
C1189      C1190   1.410       .  A
C1189      C1194   1.415       .  A
C1189      F1196   1.357       .  S
C1190      C1191   1.407       .  A
C1191      C1192   1.405       .  A
C1191      F1198   1.358       .  S
C1192      C1193   1.414       .  A
C1192      F1197   1.358       .  S
C1193      C1194   1.413       .  A
C1194      F1195   1.357       .  S
C1199      C1200   1.405       .  A
C1199      C1204   1.403       .  A
C1199      F1206   1.358   1_455  S
C1200      C1201   1.411       .  A
C1201      C1202   1.414       .  A
C1201      F1208   1.358       .  S
C1202      C1203   1.410       .  A
C1202      F1207   1.357       .  S
C1203      C1204   1.413       .  A
C1204      F1205   1.358       .  S
C1209      C1210   1.410       .  A
C1209      C1214   1.395       .  A
C1209      F1216   1.358       .  S
C1210      C1211   1.412       .  A
C1211      C1212   1.406       .  A
C1211      F1218   1.357       .  S
C1212      C1213   1.410       .  A
C1212      F1217   1.358       .  S
C1213      C1214   1.410       .  A
C1214      F1215   1.358       .  S
C1219      C1220   1.411       .  A
C1219      C1224   1.401       .  A
C1219      F1226   1.358       .  S
C1220      C1221   1.406       .  A
C1221      C1222   1.403       .  A
C1221      F1228   1.358       .  S
C1222      C1223   1.406       .  A
C1222      F1227   1.358   1_455  S
C1223      C1224   1.400       .  A
C1224      F1225   1.358       .  S
C1229      C1230   1.398       .  A
C1229      C1234   1.380       .  A
C1229      F1236   1.359       .  S
C1230      C1231   1.393       .  A
C1231      C1232   1.383       .  A
C1231      F1238   1.358       .  S
C1232      C1233   1.404       .  A
C1232      F1237   1.359       .  S
C1233      C1234   1.396       .  A
C1234      F1235   1.359       .  S
C1239      C1240   1.407       .  A
C1239      C1244   1.404       .  A
C1239      F1246   1.358       .  S
C1240      C1241   1.399       .  A
C1241      C1242   1.402       .  A
C1241      F1248   1.358       .  S
C1242      C1243   1.411       .  A
C1242      F1247   1.358       .  S
C1243      C1244   1.406       .  A
C1244      F1245   1.358       .  S
