geometry optimzed in LAMMPS
_audit_creation_date              2020-11-30 
_audit_creation_method            'lammps2cif' 
_symmetry_space_group_name_H-M    'P1' 
_symmetry_Int_Tables_number       1 
_symmetry_cell_setting            triclinic 
loop_ 
_symmetry_equiv_pos_as_xyz 
  x,y,z 
_cell_length_a                    40.28304632251751 
_cell_length_b                    40.51482030535226 
_cell_length_c                    29.971905985398447 
_cell_angle_alpha                 89.63301016187243 
_cell_angle_beta                  90.42884649640673 
_cell_angle_gamma                 89.20788899386343 
loop_ 
_atom_site_label 
_atom_site_type_symbol 
_atom_site_fract_x 
_atom_site_fract_y 
_atom_site_fract_z 
_atom_site_charge 
C1          C  0.89679058  0.78844194  0.33240004    -0.02930
O2          O  0.91908468  0.65134585  0.12114989    -0.74870
O3          O  0.91553711  0.58906236  0.21714870    -0.74900
O4          O  0.91477153  0.58568664  0.12498906    -0.74960
O5          O  0.91919064  0.65570704  0.20901000    -0.75000
O6          O  0.86399537  0.65876129  0.21156228    -0.74940
O7          O  0.85957875  0.59055918  0.12314142    -0.74910
O8          O  0.86023735  0.59160504  0.21636940    -0.74890
O9          O  0.86401063  0.65715990  0.12329485    -0.74960
Ni10       Ni  0.91901239  0.61982483  0.16831744     1.25410
Ni11       Ni  0.85985597  0.62415038  0.16867903     1.25360
C12         C  0.89241780  0.66645967  0.10931190     0.87310
C13         C  0.88759661  0.58097083  0.23390894     0.87240
C14         C  0.88672104  0.57884071  0.10714442     0.87270
C15         C  0.89249629  0.67053087  0.22111111     0.87440
C16         C  0.89132590  0.24905480  0.34636181    -0.02930
O17         O  0.91961712  0.44382292  0.12366923    -0.74870
O18         O  0.92825544  0.37794099  0.21484352    -0.74900
O19         O  0.92347823  0.37690334  0.12759654    -0.74960
O20         O  0.92150858  0.44474411  0.21656680    -0.75000
O21         O  0.86651669  0.43982001  0.21955784    -0.74940
O22         O  0.86859827  0.37712326  0.12615664    -0.74910
O23         O  0.87317759  0.37266852  0.21436622    -0.74890
O24         O  0.86440457  0.44275562  0.12684588    -0.74960
Ni25       Ni  0.92518758  0.41158789  0.17042551     1.25410
Ni26       Ni  0.86616364  0.40842679  0.17205441     1.25360
C27         C  0.89113817  0.45253744  0.10803570     0.87310
C28         C  0.90235145  0.36251662  0.22645851     0.87240
C29         C  0.89606870  0.36357303  0.11607023     0.87270
C30         C  0.89348558  0.45172647  0.23489125     0.87440
O31         O  0.91719928  0.48375193  0.05072871    -0.74870
O32         O  0.91533792  0.54996513  0.29143644    -0.74900
O33         O  0.91452049  0.54916507  0.05042706    -0.74960
O34         O  0.91881473  0.48413916  0.29163643    -0.75000
O35         O  0.86353360  0.48228454  0.29021592    -0.74940
O36         O  0.85919378  0.54818195  0.04947402    -0.74910
O37         O  0.86005029  0.54855988  0.28973614    -0.74890
O38         O  0.86189950  0.48237395  0.04993086    -0.74960
Ni39       Ni  0.91834363  0.51682657  0.00441062     1.25410
Ni40       Ni  0.85913914  0.51527130  0.33633660     1.25360
C41         C  0.88985805  0.47383018  0.06758899     0.87310
C42         C  0.88750742  0.55894961  0.27375030     0.87240
C43         C  0.88654433  0.55776646  0.06708212     0.87270
C44         C  0.89188353  0.47367113  0.27420353     0.87440
C45         C  0.79087112  0.90235484  0.00789300    -0.02930
O46         O  0.65843092  0.91946693  0.21404524    -0.74870
O47         O  0.59206474  0.91519723  0.12153831    -0.74900
O48         O  0.59179989  0.91487341  0.21402939    -0.74960
O49         O  0.65862965  0.91965728  0.12458510    -0.75000
O50         O  0.66309419  0.86467648  0.12352133    -0.74940
O51         O  0.59614500  0.85998743  0.21480140    -0.74910
O52         O  0.59581255  0.86027606  0.12139448    -0.74890
O53         O  0.66341348  0.86474915  0.21266731    -0.74960
Ni54       Ni  0.62468803  0.91913638  0.16850485     1.25410
Ni55       Ni  0.62934979  0.86036912  0.16813316     1.25360
C56         C  0.67324841  0.89285550  0.22674801     0.87310
C57         C  0.58440605  0.88735402  0.10436350     0.87240
C58         C  0.58446362  0.88691768  0.23129212     0.87270
C59         C  0.67291218  0.89319974  0.11106588     0.87440
C60         C  0.24668150  0.90425386  0.99156801    -0.02930
O61         O  0.37658252  0.87228129  0.21000083    -0.74870
O62         O  0.44274886  0.86625914  0.11913276    -0.74900
O63         O  0.44337043  0.86560867  0.21211473    -0.74960
O64         O  0.37565125  0.87378300  0.12113363    -0.75000
O65         O  0.38039428  0.92857768  0.12051125    -0.74940
O66         O  0.44699571  0.92042095  0.21265070    -0.74910
O67         O  0.44757651  0.92098510  0.11964999    -0.74890
O68         O  0.37975521  0.92703661  0.20846158    -0.74960
Ni69       Ni  0.40984525  0.86748830  0.16555502     1.25410
Ni70       Ni  0.41442039  0.92614165  0.16545670     1.25360
C71         C  0.36493690  0.90068718  0.22035361     0.87310
C72         C  0.45468530  0.89277547  0.10253787     0.87240
C73         C  0.45471774  0.89208932  0.22949548     0.87270
C74         C  0.36555814  0.90249773  0.10804486     0.87440
O75         O  0.48543582  0.86293512  0.04677776    -0.74870
O76         O  0.55225873  0.85940520  0.28777854    -0.74900
O77         O  0.55213582  0.85983659  0.04776273    -0.74960
O78         O  0.48555441  0.86244320  0.28679356    -0.75000
O79         O  0.48725788  0.91738518  0.28653079    -0.74940
O80         O  0.55339419  0.91479736  0.04661173    -0.74910
O81         O  0.55342658  0.91437931  0.28752653    -0.74890
O82         O  0.48724100  0.91788220  0.04572123    -0.74960
Ni83       Ni  0.51877930  0.85914240  0.00065814     1.25410
Ni84       Ni  0.52040945  0.91795363  0.99989328     1.25360
C85         C  0.47674877  0.89101886  0.06306140     0.87310
C86         C  0.56244055  0.88663017  0.27084377     0.87240
C87         C  0.56235180  0.88712456  0.06426421     0.87270
C88         C  0.47681458  0.89041903  0.26957641     0.87440
C89         C  0.78921369  0.14064214  0.99195958    -0.02930
O90         O  0.59514635  0.18044120  0.11650212    -0.74870
O91         O  0.66217781  0.17405495  0.20704563    -0.74900
O92         O  0.66240249  0.17596383  0.11930772    -0.74960
O93         O  0.59523717  0.17976551  0.20952758    -0.75000
O94         O  0.59171880  0.12490418  0.20881428    -0.74940
O95         O  0.65946300  0.12097332  0.12008963    -0.74910
O96         O  0.65803481  0.11928477  0.20834857    -0.74890
O97         O  0.59266222  0.12547269  0.11653835    -0.74960
Ni98       Ni  0.62833557  0.17962518  0.16319402     1.25410
Ni99       Ni  0.62486028  0.12077625  0.16335115     1.25360
C100        C  0.58464847  0.15351974  0.09943803     0.87310
C101        C  0.67293250  0.14552087  0.21947647     0.87240
C102        C  0.67344410  0.14765007  0.10743331     0.87270
C103        C  0.58419435  0.15285438  0.22619649     0.87440
C104        C  0.24745376  0.13974280  0.99595264    -0.02930
O105        O  0.45016237  0.12286471  0.11707626    -0.74870
O106        O  0.38271840  0.11804698  0.20626219    -0.74900
O107        O  0.38354172  0.11714590  0.11813165    -0.74960
O108        O  0.44952188  0.12292556  0.20968900    -0.75000
O109        O  0.44606508  0.17791317  0.20814709    -0.74940
O110        O  0.37773040  0.17191379  0.11962505    -0.74910
O111        O  0.37963093  0.17298666  0.20788120    -0.74890
O112        O  0.44458942  0.17768003  0.11542888    -0.74960
Ni113      Ni  0.41720581  0.11832005  0.16288524     1.25410
Ni114      Ni  0.41229530  0.17713785  0.16262109     1.25360
C115        C  0.45669342  0.15091922  0.09925268     0.87310
C116        C  0.36846424  0.14476538  0.21909792     0.87240
C117        C  0.36782110  0.14351097  0.10695046     0.87270
C118        C  0.45700829  0.15104310  0.22601690     0.87440
O119        O  0.55298983  0.18150101  0.04240288    -0.74870
O120        O  0.48663346  0.17991979  0.28270240    -0.74900
O121        O  0.48665151  0.17991825  0.04233704    -0.74960
O122        O  0.55285087  0.18109653  0.28277295    -0.75000
O123        O  0.55421677  0.12606367  0.28374125    -0.74940
O124        O  0.48872339  0.12489918  0.04264934    -0.74910
O125        O  0.48844717  0.12486721  0.28374607    -0.74890
O126        O  0.55458121  0.12644469  0.04256890    -0.74960
Ni127      Ni  0.51970513  0.18264528  0.99587978     1.25410
Ni128      Ni  0.52156269  0.12370306  0.99655647     1.25360
C129        C  0.56317994  0.15404450  0.05944723     0.87310
C130        C  0.47827247  0.15209717  0.26614785     0.87240
C131        C  0.47828136  0.15209311  0.05943095     0.87270
C132        C  0.56282282  0.15354321  0.26621357     0.87440
C133        C  0.14130063  0.79270878  0.00100776    -0.02930
O134        O  0.12265259  0.65780180  0.21172299    -0.74870
O135        O  0.12906789  0.59003360  0.12365000    -0.74900
O136        O  0.12862320  0.59122077  0.21621205    -0.74960
O137        O  0.12264794  0.65626782  0.12342382    -0.75000
O138        O  0.17761917  0.66157016  0.12631922    -0.74940
O139        O  0.18385441  0.59399121  0.21623773    -0.74910
O140        O  0.18411368  0.59482875  0.12320210    -0.74890
O141        O  0.17778305  0.66053418  0.21492150    -0.74960
Ni142      Ni  0.12385973  0.62317491  0.16881980     1.25410
Ni143      Ni  0.18289300  0.62741255  0.17014676     1.25360
C144        C  0.14907694  0.67199543  0.22516609     0.87310
C145        C  0.15737378  0.58307023  0.10646653     0.87240
C146        C  0.15692108  0.58328299  0.23330720     0.87270
C147        C  0.14895548  0.67152483  0.11258359     0.87440
C148        C  0.13845455  0.25036632  0.00120930    -0.02930
O149        O  0.18582437  0.44342212  0.12465099    -0.74870
O150        O  0.17750646  0.37627144  0.21484127    -0.74900
O151        O  0.18039301  0.37668468  0.12695456    -0.74960
O152        O  0.18461534  0.44295430  0.21785567    -0.75000
O153        O  0.12953936  0.44887747  0.21564940    -0.74940
O154        O  0.12517139  0.38208028  0.12595097    -0.74910
O155        O  0.12253811  0.38294644  0.21408600    -0.74890
O156        O  0.13063763  0.44836083  0.12327463    -0.74960
Ni157      Ni  0.18417472  0.41013977  0.17128302     1.25410
Ni158      Ni  0.12511444  0.41625529  0.16960493     1.25360
C159        C  0.15899883  0.45519238  0.10689541     0.87310
C160        C  0.14845419  0.36678666  0.22614629     0.87240
C161        C  0.15186023  0.36699872  0.11409031     0.87270
C162        C  0.15770732  0.45527732  0.23371483     0.87440
O163        O  0.13123890  0.48666282  0.29055795    -0.74870
O164        O  0.13111943  0.55197713  0.04942319    -0.74900
O165        O  0.13067433  0.55228735  0.29043549    -0.74960
O166        O  0.13208484  0.48637646  0.04951627    -0.75000
O167        O  0.18743334  0.48595958  0.05017955    -0.74940
O168        O  0.18601995  0.55219194  0.29013740    -0.74910
O169        O  0.18644737  0.55213288  0.04996706    -0.74890
O170        O  0.18657192  0.48602348  0.29031846    -0.74960
Ni171      Ni  0.12941511  0.51932366  0.00333164     1.25410
Ni172      Ni  0.18865852  0.51907360  0.00346181     1.25360
C173        C  0.15872041  0.47692496  0.27350169     0.87310
C174        C  0.15856659  0.56145259  0.06665351     0.87240
C175        C  0.15805411  0.56166545  0.27328971     0.87270
C176        C  0.15979013  0.47675403  0.06686543     0.87440
C177        C  0.13426429  0.00587667  0.98845777     0.00120
C178        C  0.13525800  0.04051572  0.98606800     0.00120
C179        C  0.99973011  0.14292858  0.00662311     0.00120
C180        C  0.03417151  0.14467504  0.00367074     0.00120
C181        C  0.99929213  0.89725102  0.00529966     0.00120
C182        C  0.03381874  0.89839405  0.99893997     0.00120
C183        C  0.89893395  0.00281974  0.99835534     0.00120
C184        C  0.89824116  0.03719533  0.99658253     0.00120
C185        C  0.97964020  0.95471316  0.03174799    -0.02290
C186        C  0.97824773  0.92845070  0.00072406     0.07390
C187        C  0.95520885  0.93109520  0.29838810    -0.02400
C188        C  0.93353727  0.95853613  0.29457780    -0.02410
C189        C  0.93079008  0.98192726  0.99596787     0.07520
C190        C  0.95574170  0.98084922  0.03007356    -0.02600
Br191      Br  0.95693747  0.01281192  0.07752926    -0.01150
Br192      Br  0.01183351  0.95358113  0.07997775    -0.01220
Br193      Br  0.91185077  0.96654010  0.23788373    -0.01180
Br194      Br  0.95531460  0.89860299  0.25145540    -0.01170
C195        C  0.94533962  0.11457451  0.00747857    -0.02290
C196        C  0.97945355  0.10979668  0.00587655     0.07390
C197        C  0.98735845  0.07644705  0.32372374    -0.02400
C198        C  0.96075595  0.05520860  0.31014814    -0.02410
C199        C  0.92923665  0.05888799  0.99808106     0.07520
C200        C  0.92677343  0.08787982  0.02261961    -0.02600
Br201      Br  0.91501515  0.08506868  0.08468441    -0.01150
Br202      Br  0.93239667  0.13292402  0.95058105    -0.01220
Br203      Br  0.96854210  0.02799828  0.25947655    -0.01180
Br204      Br  0.01986001  0.04800438  0.35113113    -0.01170
C205        C  0.08846290  0.07669018  0.28617427    -0.02290
C206        C  0.10343265  0.06096539  0.99074544     0.07390
C207        C  0.09376427  0.07256697  0.03350936    -0.02400
C208        C  0.07189740  0.10020619  0.03769899    -0.02410
C209        C  0.05519199  0.11356163  0.99979165     0.07520
C210        C  0.06142201  0.09888775  0.29120720    -0.02600
Br211      Br  0.03215555  0.10703299  0.24080097    -0.01150
Br212      Br  0.11080516  0.07728526  0.22895461    -0.01220
Br213      Br  0.06142423  0.11673929  0.09614744    -0.01180
Br214      Br  0.11203751  0.05259083  0.08676928    -0.01170
C215        C  0.04987271  0.95730257  0.29717116    -0.02290
C216        C  0.05428790  0.93083960  0.99532161     0.07390
C217        C  0.08644343  0.93004474  0.01304341    -0.02400
C218        C  0.10137523  0.95975755  0.02465407    -0.02410
C219        C  0.10153368  0.98556286  0.99286441     0.07520
C220        C  0.07422813  0.98346049  0.29433530    -0.02600
Br221      Br  0.07130310  0.01016938  0.24183169    -0.01150
Br222      Br  0.02038044  0.95119440  0.24733230    -0.01220
Br223      Br  0.12151834  0.96261356  0.08238224    -0.01180
Br224      Br  0.11164103  0.90953299  0.96686402    -0.01170
C225        C  0.08354035  0.17777445  0.97883546    -0.02290
C226        C  0.05441707  0.17698426  0.00412943     0.07390
C227        C  0.05219600  0.20380028  0.36871224    -0.02400
C228        C  0.07569038  0.23106248  0.36662903    -0.02410
C229        C  0.10569267  0.22774267  0.00563870     0.07520
C230        C  0.11045757  0.19429435  0.99707087    -0.02600
Br231      Br  0.12507265  0.17466876  0.05346074    -0.01150
Br232      Br  0.08377894  0.16858266  0.91633786    -0.01220
Br233      Br  0.06941465  0.26372252  0.41301107    -0.01180
Br234      Br  0.02863266  0.19771286  0.42332479    -0.01170
C235        C  0.11827172  0.28100920  0.25914583    -0.02290
C236        C  0.14317182  0.27216376  0.29130941     0.07390
C237        C  0.17237986  0.29165738  0.29043864    -0.02400
C238        C  0.17007129  0.32470100  0.27908661    -0.02410
C239        C  0.14490452  0.33502541  0.24971282     0.07520
C240        C  0.12039473  0.31187238  0.23661175    -0.02600
Br241      Br  0.08944025  0.32183954  0.18860648    -0.01150
Br242      Br  0.07970474  0.25447539  0.24766305    -0.01220
Br243      Br  0.20395446  0.35374512  0.30135643    -0.01180
Br244      Br  0.21454012  0.27327509  0.27346583    -0.01170
C245        C  0.15889415  0.30591890  0.10401761    -0.02290
C246        C  0.14887044  0.33707161  0.08689703     0.07390
C247        C  0.12906843  0.33868333  0.04871722    -0.02400
C248        C  0.11939300  0.30961610  0.02787260    -0.02410
C249        C  0.13601127  0.27843388  0.03802134     0.07520
C250        C  0.15046463  0.27662793  0.08130726    -0.02600
Br251      Br  0.15399979  0.23575403  0.11408409    -0.01150
Br252      Br  0.18526209  0.30299535  0.15785971    -0.01220
Br253      Br  0.07753694  0.31395183  0.99563757    -0.01180
Br254      Br  0.11550786  0.38121009  0.02407435    -0.01170
C255        C  0.08709216  0.82325295  0.29552176    -0.02290
C256        C  0.10868631  0.81686806  0.00105400     0.07390
C257        C  0.10212014  0.83837146  0.03845207    -0.02400
C258        C  0.07369097  0.85951078  0.03987964    -0.02410
C259        C  0.05515887  0.86702811  0.00119122     0.07520
C260        C  0.06262681  0.84922372  0.29554756    -0.02600
Br261      Br  0.03912523  0.86192513  0.24129729    -0.01150
Br262      Br  0.08923574  0.80074114  0.23806756    -0.01220
Br263      Br  0.05982008  0.87926431  0.09545716    -0.01180
Br264      Br  0.12954240  0.83957641  0.09161470    -0.01170
C265        C  0.12005756  0.75686563  0.07336994    -0.02290
C266        C  0.14481845  0.76531345  0.04008680     0.07390
C267        C  0.17172528  0.74093429  0.03592875    -0.02400
C268        C  0.16932642  0.70908076  0.05388503    -0.02410
C269        C  0.14624321  0.70259046  0.08675258     0.07520
C270        C  0.12334415  0.72736406  0.09884286    -0.02600
Br271      Br  0.09627107  0.72078854  0.15162005    -0.01150
Br272      Br  0.07836506  0.77933066  0.08606473    -0.01220
Br273      Br  0.19702936  0.67322321  0.03159552    -0.01180
Br274      Br  0.21416787  0.74811614  0.34106374    -0.01170
C275        C  0.11467421  0.74089386  0.29654016    -0.02290
C276        C  0.13941415  0.76660560  0.29403637     0.07390
C277        C  0.16454127  0.76052649  0.26105379    -0.02400
C278        C  0.16595385  0.73063555  0.23682994    -0.02410
C279        C  0.14617062  0.70381759  0.24914242     0.07520
C280        C  0.12066472  0.70911487  0.27955361    -0.02600
Br281      Br  0.09473368  0.67215290  0.30043989    -0.01150
Br282      Br  0.07114052  0.74670889  0.98797136    -0.01220
Br283      Br  0.19510168  0.72669554  0.18554458    -0.01180
Br284      Br  0.20111296  0.78794997  0.24917254    -0.01170
C285        C  0.16766836  0.08997669  0.01175231    -0.02290
C286        C  0.16782197  0.06103969  0.98694440     0.07390
C287        C  0.19455728  0.05937959  0.28962704    -0.02400
C288        C  0.22120451  0.08316928  0.29095209    -0.02410
C289        C  0.22382330  0.10741369  0.99414423     0.07520
C290        C  0.19699210  0.10475684  0.02506866    -0.02600
Br291      Br  0.19153995  0.12757071  0.08044397    -0.01150
Br292      Br  0.14323677  0.12293373  0.98092404    -0.01220
Br293      Br  0.24790311  0.08279053  0.23656488    -0.01180
Br294      Br  0.18970373  0.03225582  0.23771637    -0.01170
C295        C  0.19813714  0.22390476  0.36194315    -0.02290
C296        C  0.17098201  0.22564356  0.99813490     0.07390
C297        C  0.17497027  0.20329101  0.96097022    -0.02400
C298        C  0.19813188  0.17624177  0.96123407    -0.02410
C299        C  0.22167085  0.17108173  0.99677309     0.07520
C300        C  0.21836554  0.19495110  0.36622410    -0.02600
Br301      Br  0.23816298  0.19197343  0.42589776    -0.01150
Br302      Br  0.21934347  0.26364032  0.38334504    -0.01220
Br303      Br  0.19737986  0.14777309  0.90865675    -0.01180
Br304      Br  0.15325609  0.21155754  0.90395070    -0.01170
C305        C  0.29735076  0.16937009  0.03282285    -0.02290
C306        C  0.27336288  0.14289304  0.03626463     0.07390
C307        C  0.28103028  0.11812143  0.06999050    -0.02400
C308        C  0.31141325  0.11935717  0.09420844    -0.02410
C309        C  0.33641913  0.14153688  0.08168405     0.07520
C310        C  0.32953870  0.16555545  0.04965318    -0.02600
Br311      Br  0.36529270  0.19232355  0.02630619    -0.01150
Br312      Br  0.28956845  0.21203905  0.33838350    -0.01220
Br313      Br  0.31884947  0.09039985  0.14526932    -0.01180
Br314      Br  0.25519173  0.07932341  0.08358091    -0.01170
C315        C  0.30969441  0.16292314  0.23062514    -0.02290
C316        C  0.33690443  0.14297465  0.24369338     0.07390
C317        C  0.33266492  0.11898344  0.27643947    -0.02400
C318        C  0.30115762  0.11386124  0.29459080    -0.02410
C319        C  0.27450000  0.13847336  0.29002640     0.07520
C320        C  0.28014652  0.16341443  0.25586359    -0.02600
Br321      Br  0.25369206  0.20241582  0.24198399    -0.01150
Br322      Br  0.31280908  0.18976132  0.17668811    -0.01220
Br323      Br  0.29714921  0.07141928  0.32424939    -0.01180
Br324      Br  0.37088498  0.09402148  0.29866189    -0.01170
C325        C  0.84533674  0.11196120  0.97820839    -0.02290
C326        C  0.81391339  0.10893083  0.99691998     0.07390
C327        C  0.81323441  0.08075366  0.36147098    -0.02400
C328        C  0.84102044  0.05771775  0.36361305    -0.02410
C329        C  0.86561141  0.05748389  0.99616407     0.07520
C330        C  0.86247368  0.08340360  0.96510701    -0.02600
Br331      Br  0.88137053  0.08089931  0.90635119    -0.01150
Br332      Br  0.86964370  0.13585129  0.02257532    -0.01220
Br333      Br  0.84787593  0.03242409  0.41751420    -0.01180
Br334      Br  0.78037667  0.07266392  0.40728913    -0.01170
C335        C  0.76135314  0.11943347  0.24984235    -0.02290
C336        C  0.76889316  0.14481679  0.28066031     0.07390
C337        C  0.74801952  0.17333766  0.27802001    -0.02400
C338        C  0.71469377  0.16954842  0.26916993    -0.02410
C339        C  0.70506855  0.14315414  0.24244752     0.07520
C340        C  0.72951626  0.11942808  0.22934236    -0.02600
Br341      Br  0.72006237  0.08652847  0.18462519    -0.01150
Br342      Br  0.79157246  0.08374323  0.23647103    -0.01220
Br343      Br  0.68420284  0.20282291  0.29092450    -0.01180
Br344      Br  0.76450497  0.21479892  0.92248273    -0.01170
C345        C  0.73116110  0.11930598  0.01798363    -0.02290
C346        C  0.76133385  0.13660179  0.02796566     0.07390
C347        C  0.76391595  0.14870993  0.07213000    -0.02400
C348        C  0.73467313  0.15489558  0.09671314    -0.02410
C349        C  0.70344783  0.14503805  0.07998324     0.07520
C350        C  0.70198572  0.12677103  0.04079289    -0.02600
Br351      Br  0.65974096  0.11206389  0.01755079    -0.01150
Br352      Br  0.73017517  0.07746182  0.32023887    -0.01220
Br353      Br  0.73754710  0.17996732  0.15070474    -0.01180
Br354      Br  0.80653822  0.15533224  0.10042037    -0.01170
C355        C  0.22108138  0.96478343  0.01822989    -0.02290
C356        C  0.22257159  0.93729577  0.98801583     0.07390
C357        C  0.19966711  0.94139303  0.28400509    -0.02400
C358        C  0.17202923  0.96350899  0.28476509    -0.02410
C359        C  0.16650647  0.98476869  0.98761248     0.07520
C360        C  0.19210009  0.98563614  0.02067939    -0.02600
Br361      Br  0.18856583  0.01484511  0.07095271    -0.01150
Br362      Br  0.26070058  0.98408354  0.04372790    -0.01220
Br363      Br  0.14259402  0.96630289  0.23284645    -0.01180
Br364      Br  0.20629243  0.92141138  0.22652997    -0.01170
C365        C  0.22599896  0.84384435  0.03026316    -0.02290
C366        C  0.22322042  0.87171992  0.99835798     0.07390
C367        C  0.18977809  0.87538869  0.31988208    -0.02400
C368        C  0.17209538  0.84725676  0.30690434    -0.02410
C369        C  0.17212521  0.81865462  0.00218394     0.07520
C370        C  0.19882628  0.82050373  0.03554470    -0.02600
Br371      Br  0.19800303  0.79734745  0.09343095    -0.01150
Br372      Br  0.26083973  0.83778688  0.07524369    -0.01220
Br373      Br  0.15210520  0.85108205  0.24869059    -0.01180
Br374      Br  0.16931058  0.89775983  0.36965527    -0.01170
C375        C  0.27480856  0.88368409  0.24889292    -0.02290
C376        C  0.26826900  0.90839817  0.28112444     0.07390
C377        C  0.29021852  0.93574825  0.27935661    -0.02400
C378        C  0.32329828  0.93072203  0.26731935    -0.02410
C379        C  0.33185826  0.90322136  0.24130041     0.07520
C380        C  0.30611017  0.88177164  0.22790678    -0.02600
Br381      Br  0.31298800  0.84905017  0.18174860    -0.01150
Br382      Br  0.24369748  0.85097941  0.23385422    -0.01220
Br383      Br  0.35550640  0.96238095  0.28706255    -0.01180
Br384      Br  0.27380126  0.97997315  0.93481490    -0.01170
C385        C  0.30543991  0.88139717  0.01738463    -0.02290
C386        C  0.27589318  0.90092760  0.02736333     0.07390
C387        C  0.27550889  0.91450926  0.07088545    -0.02400
C388        C  0.30567067  0.91884802  0.09470334    -0.02410
C389        C  0.33574675  0.90490285  0.07903472     0.07520
C390        C  0.33538058  0.88645415  0.04003189    -0.02600
Br391      Br  0.37637299  0.86741158  0.01757283    -0.01150
Br392      Br  0.30470972  0.83980483  0.31843255    -0.01220
Br393      Br  0.30540550  0.94451197  0.14848746    -0.01180
Br394      Br  0.23454192  0.91930116  0.10349472    -0.01170
C395        C  0.83976694  0.93663618  0.04241347    -0.02290
C396        C  0.81323524  0.93510223  0.00969499     0.07390
C397        C  0.81192499  0.96321850  0.31315066    -0.02400
C398        C  0.84020743  0.98335142  0.30674236    -0.02410
C399        C  0.86728717  0.98257116  0.00390968     0.07520
C400        C  0.86470187  0.96077765  0.04061926    -0.02600
Br401      Br  0.89442528  0.96425619  0.09147249    -0.01150
Br402      Br  0.84678736  0.90508862  0.09017563    -0.01220
Br403      Br  0.84181561  0.00869889  0.25222422    -0.01180
Br404      Br  0.77226443  0.98211270  0.28662093    -0.01170
C405        C  0.70257279  0.91478929  0.04475849    -0.02290
C406        C  0.70334628  0.89666596  0.08487457     0.07390
C407        C  0.73416399  0.89257277  0.10714123    -0.02400
C408        C  0.76308223  0.90644636  0.08866755    -0.02410
C409        C  0.76259856  0.91197418  0.04291903     0.07520
C410        C  0.73228423  0.92839063  0.02952869    -0.02600
Br411      Br  0.72868009  0.97522115  0.37310166    -0.01150
Br412      Br  0.66105421  0.92809124  0.01721458    -0.01220
Br413      Br  0.78005564  0.94296015  0.12149361    -0.01180
Br414      Br  0.73707661  0.86787392  0.16189101    -0.01170
C415        C  0.74233094  0.86688765  0.30721679    -0.02290
C416        C  0.76716594  0.89198691  0.30063156     0.07390
C417        C  0.76177545  0.91163357  0.26241997    -0.02400
C418        C  0.72946992  0.91644043  0.24439529    -0.02410
C419        C  0.70394666  0.89421458  0.25492876     0.07520
C420        C  0.71103914  0.86875203  0.28555159    -0.02600
Br421      Br  0.67595258  0.83860300  0.30221456    -0.01150
Br422      Br  0.74768268  0.82953270  0.01288799    -0.01620
Br423      Br  0.72162856  0.95186027  0.20201678    -0.01180
Br424      Br  0.79797160  0.91925577  0.22335482    -0.01170
C425        C  0.95150051  0.22664135  0.31563756    -0.02290
C426        C  0.92347915  0.22431351  0.34502769     0.07390
C427        C  0.92725987  0.19857683  0.04517747    -0.02400
C428        C  0.95574485  0.17743918  0.04761231    -0.02410
C429        C  0.97826108  0.17504659  0.01181956     0.07520
C430        C  0.97533018  0.20017876  0.31198842    -0.02600
Br431      Br  0.00062710  0.19698473  0.25799685    -0.01150
Br432      Br  0.96229049  0.26662333  0.28464945    -0.01220
Br433      Br  0.96384098  0.15049701  0.10066666    -0.01180
Br434      Br  0.89649682  0.19280815  0.09325498    -0.01170
C435        C  0.86123477  0.20275735  0.29915479    -0.02290
C436        C  0.86009774  0.22577227  0.00219001     0.07390
C437        C  0.82697414  0.23025968  0.01817146    -0.02400
C438        C  0.80330033  0.20416280  0.01699780    -0.02410
C439        C  0.81006023  0.17481941  0.99176410     0.07520
C440        C  0.83472954  0.18059510  0.29131805    -0.02600
Br441      Br  0.83282998  0.16008177  0.23262948    -0.01150
Br442      Br  0.89560101  0.20313942  0.25379942    -0.01220
Br443      Br  0.75844140  0.21615557  0.03570484    -0.01180
Br444      Br  0.80782849  0.27383068  0.02100710    -0.01170
C445        C  0.92551063  0.31540262  0.08131721    -0.02290
C446        C  0.89571328  0.33005704  0.09648428     0.07390
C447        C  0.86743260  0.30934021  0.10198600    -0.02400
C448        C  0.86820653  0.27652955  0.08650278    -0.02410
C449        C  0.89543276  0.26506453  0.06098987     0.07520
C450        C  0.92583965  0.28214277  0.06917286    -0.02600
Br451      Br  0.96820596  0.26002485  0.07711902    -0.01150
Br452      Br  0.96670194  0.33944941  0.07504850    -0.01220
Br453      Br  0.83957822  0.24590207  0.11748606    -0.01180
Br454      Br  0.82687063  0.32369661  0.13140485    -0.01170
C455        C  0.89007372  0.31433384  0.32732028    -0.02290
C456        C  0.88834554  0.28047768  0.31294495     0.07390
C457        C  0.88362074  0.27798627  0.26630838    -0.02400
C458        C  0.89704675  0.30208684  0.23851302    -0.02410
C459        C  0.90578400  0.33308445  0.25520153     0.07520
C460        C  0.90648348  0.33751496  0.30111139    -0.02600
Br461      Br  0.91768774  0.38022857  0.32524344    -0.01150
Br462      Br  0.84954465  0.33791428  0.00773849    -0.01220
Br463      Br  0.91441205  0.28707700  0.18366377    -0.01180
Br464      Br  0.84092448  0.26563939  0.24301043    -0.01170
C465        C  0.84379802  0.86905710  0.31034864    -0.02290
C466        C  0.81747014  0.87088182  0.00948756     0.07390
C467        C  0.81849847  0.84320429  0.04024422    -0.02400
C468        C  0.83978076  0.81462223  0.03475174    -0.02410
C469        C  0.86460820  0.81291778  0.99973086     0.07520
C470        C  0.86429437  0.84073916  0.30361494    -0.02600
Br471      Br  0.89300213  0.84187254  0.25128451    -0.01150
Br472      Br  0.86257036  0.90725084  0.28209284    -0.01220
Br473      Br  0.83543079  0.78171213  0.08325706    -0.01180
Br474      Br  0.79645011  0.84396946  0.09700256    -0.01170
C475        C  0.92746588  0.83855993  0.37413700    -0.02290
C476        C  0.92762492  0.81391234  0.00560352     0.07390
C477        C  0.95560810  0.81767035  0.97568036    -0.02400
C478        C  0.98335383  0.83621705  0.98876087    -0.02410
C479        C  0.97888021  0.86523779  0.01337467     0.07520
C480        C  0.95154003  0.86434224  0.37617804    -0.02600
Br481      Br  0.95071673  0.89453726  0.42558841    -0.01150
Br482      Br  0.89775950  0.83683537  0.42449775    -0.01220
Br483      Br  0.01359286  0.80600660  0.01676638    -0.01180
Br484      Br  0.96249365  0.79943957  0.91673600    -0.01170
C485        C  0.92006875  0.70725163  0.27532800    -0.02290
C486        C  0.89519487  0.70287301  0.24366659     0.07390
C487        C  0.87599799  0.73038773  0.22963036    -0.02400
C488        C  0.87668754  0.76054931  0.25369361    -0.02410
C489        C  0.90114471  0.76514143  0.28922317     0.07520
C490        C  0.92601690  0.73871076  0.29267420    -0.02600
Br491      Br  0.96676436  0.74048230  0.99348425    -0.01150
Br492      Br  0.94392542  0.66875483  0.29903924    -0.01220
Br493      Br  0.83791253  0.78843217  0.23992188    -0.01180
Br494      Br  0.84734249  0.72600637  0.17775147    -0.01170
C495        C  0.87219699  0.70226397  0.04754513    -0.02290
C496        C  0.89456533  0.69687553  0.08236250     0.07390
C497        C  0.91621450  0.72207759  0.09533647    -0.02400
C498        C  0.91727336  0.75236011  0.07156626    -0.02410
C499        C  0.89398632  0.75933219  0.03542350     0.07520
C500        C  0.86984202  0.73333090  0.02686671    -0.02600
Br501      Br  0.82912518  0.73907935  0.99222531    -0.01150
Br502      Br  0.84477807  0.66599813  0.02737641    -0.01220
Br503      Br  0.95429573  0.77919404  0.09025672    -0.01180
Br504      Br  0.94504810  0.71495959  0.14706923    -0.01170
C505        C  0.89679221  0.78844068  0.66572242    -0.02930
O506        O  0.91908689  0.65134034  0.45447587    -0.74870
O507        O  0.91554072  0.58906140  0.55048066    -0.74900
O508        O  0.91477113  0.58568199  0.45832110    -0.74960
O509        O  0.91919791  0.65570524  0.54233550    -0.75000
O510        O  0.86400278  0.65876196  0.54489216    -0.74940
O511        O  0.85957845  0.59055673  0.45647672    -0.74910
O512        O  0.86024100  0.59160638  0.54970464    -0.74890
O513        O  0.86401312  0.65715628  0.45662534    -0.74960
Ni514      Ni  0.91901561  0.61982144  0.50164626     1.25410
Ni515      Ni  0.85985930  0.62414943  0.50201211     1.25360
C516        C  0.89241981  0.66645438  0.44263901     0.87310
C517        C  0.88760036  0.58097202  0.56724343     0.87240
C518        C  0.88671980  0.57883744  0.44047800     0.87270
C519        C  0.89250477  0.67053075  0.55443723     0.87440
C520        C  0.89132784  0.24905513  0.67969516    -0.02930
O521        O  0.91961954  0.44382316  0.45700354    -0.74870
O522        O  0.92826014  0.37794232  0.54817969    -0.74900
O523        O  0.92348263  0.37690308  0.46093262    -0.74960
O524        O  0.92151184  0.44474594  0.54990200    -0.75000
O525        O  0.86652016  0.43982108  0.55289349    -0.74940
O526        O  0.86860279  0.37712089  0.45949444    -0.74910
O527        O  0.87318239  0.37266917  0.54770386    -0.74890
O528        O  0.86440711  0.44275397  0.46018082    -0.74960
Ni529      Ni  0.92519123  0.41158875  0.50376093     1.25410
Ni530      Ni  0.86616753  0.40842623  0.50539090     1.25360
C531        C  0.89114018  0.45253655  0.44137002     0.87310
C532        C  0.90235649  0.36251757  0.55979526     0.87240
C533        C  0.89607354  0.36357129  0.44940735     0.87270
C534        C  0.89348885  0.45172849  0.56822663     0.87440
O535        O  0.91719912  0.48375163  0.38406114    -0.74870
O536        O  0.91534118  0.54996873  0.62477357    -0.74900
O537        O  0.91451761  0.54916435  0.38375801    -0.74960
O538        O  0.91881758  0.48414260  0.62497260    -0.75000
O539        O  0.86353656  0.48228816  0.62355107    -0.74940
O540        O  0.85919093  0.54817957  0.38280783    -0.74910
O541        O  0.86005357  0.54856362  0.62307234    -0.74890
O542        O  0.86189943  0.48237176  0.38326552    -0.74960
Ni543      Ni  0.91834090  0.51682598  0.33774217     1.25410
Ni544      Ni  0.85914169  0.51527509  0.66967252     1.25360
C545        C  0.88985865  0.47382901  0.40092274     0.87310
C546        C  0.88751093  0.55895270  0.60708647     0.87240
C547        C  0.88654173  0.55776437  0.40041491     0.87270
C548        C  0.89188657  0.47367430  0.60753900     0.87440
C549        C  0.79086356  0.90234948  0.34122374    -0.02930
O550        O  0.65842502  0.91946261  0.54736071    -0.74870
O551        O  0.59205276  0.91518029  0.45485954    -0.74900
O552        O  0.59179531  0.91486631  0.54735216    -0.74960
O553        O  0.65861809  0.91964450  0.45790023    -0.75000
O554        O  0.66308666  0.86466382  0.45684737    -0.74940
O555        O  0.59614215  0.85998049  0.54813463    -0.74910
O556        O  0.59580393  0.86025947  0.45472466    -0.74890
O557        O  0.66340914  0.86474476  0.54599477    -0.74960
Ni558      Ni  0.62467932  0.91912593  0.50182285     1.25410
Ni559      Ni  0.62934393  0.86035891  0.50146227     1.25360
C560        C  0.67324284  0.89285300  0.56007077     0.87310
C561        C  0.58439434  0.88733511  0.43768961     0.87240
C562        C  0.58446331  0.88691243  0.56462358     0.87270
C563        C  0.67290262  0.89318659  0.44438650     0.87440
C564        C  0.24669324  0.90425458  0.32494864    -0.02930
O565        O  0.37660122  0.87225606  0.54338223    -0.74870
O566        O  0.44275363  0.86622579  0.45249258    -0.74900
O567        O  0.44338928  0.86559311  0.54547651    -0.74960
O568        O  0.37565750  0.87374017  0.45451538    -0.75000
O569        O  0.38039519  0.92853563  0.45387114    -0.74940
O570        O  0.44700578  0.92040650  0.54599507    -0.74910
O571        O  0.44757488  0.92095244  0.45299360    -0.74890
O572        O  0.37976473  0.92701153  0.54182157    -0.74960
Ni573      Ni  0.40985797  0.86745887  0.49892710     1.25410
Ni574      Ni  0.41442505  0.92611315  0.49880809     1.25360
C575        C  0.36495124  0.90066227  0.55372624     0.87310
C576        C  0.45468230  0.89274141  0.43588426     0.87240
C577        C  0.45473247  0.89207887  0.56284721     0.87270
C578        C  0.36556114  0.90245139  0.44141856     0.87440
O579        O  0.48542265  0.86290106  0.38010937    -0.74870
O580        O  0.55226908  0.85940817  0.62112924    -0.74900
O581        O  0.55212335  0.85981173  0.38109019    -0.74960
O582        O  0.48556752  0.86244601  0.62015268    -0.75000
O583        O  0.48727183  0.91738828  0.61986946    -0.74940
O584        O  0.55337436  0.91477250  0.37993797    -0.74910
O585        O  0.55343856  0.91438232  0.62086117    -0.74890
O586        O  0.48722144  0.91784820  0.37905040    -0.74960
Ni587      Ni  0.51876495  0.85911233  0.33398509     1.25410
Ni588      Ni  0.52038777  0.91792341  0.33321995     1.25360
C589        C  0.47673591  0.89098417  0.39639620     0.87310
C590        C  0.56244847  0.88663034  0.60418329     0.87240
C591        C  0.56233687  0.88710126  0.39759101     0.87270
C592        C  0.47682870  0.89041838  0.60292600     0.87440
C593        C  0.78921389  0.14064195  0.32529211    -0.02930
O594        O  0.59514716  0.18044011  0.44983370    -0.74870
O595        O  0.66217814  0.17405544  0.54037770    -0.74900
O596        O  0.66240320  0.17596326  0.45263982    -0.74960
O597        O  0.59523781  0.17976556  0.54285888    -0.75000
O598        O  0.59171950  0.12490417  0.54214648    -0.74940
O599        O  0.65946433  0.12097269  0.45342325    -0.74910
O600        O  0.65803513  0.11928525  0.54168221    -0.74890
O601        O  0.59266363  0.12547154  0.44987080    -0.74960
Ni602      Ni  0.62833619  0.17962491  0.49652570     1.25410
Ni603      Ni  0.62486125  0.12077590  0.49668412     1.25360
C604        C  0.58464959  0.15351834  0.43277009     0.87310
C605        C  0.67293260  0.14552155  0.55280964     0.87240
C606        C  0.67344511  0.14764944  0.44076629     0.87270
C607        C  0.58419520  0.15285455  0.55952824     0.87440
C608        C  0.24744967  0.13972559  0.32929378    -0.02930
O609        O  0.45016377  0.12286123  0.45041039    -0.74870
O610        O  0.38271963  0.11804594  0.53959622    -0.74900
O611        O  0.38354344  0.11714139  0.45146580    -0.74960
O612        O  0.44952305  0.12292500  0.54302259    -0.75000
O613        O  0.44606579  0.17791256  0.54147760    -0.74940
O614        O  0.37773060  0.17190917  0.45295595    -0.74910
O615        O  0.37963183  0.17298569  0.54121192    -0.74890
O616        O  0.44458965  0.17767646  0.44875985    -0.74960
Ni617      Ni  0.41720718  0.11831765  0.49621936     1.25410
Ni618      Ni  0.41229577  0.17713542  0.49595167     1.25360
C619        C  0.45669432  0.15091539  0.43258552     0.87310
C620        C  0.36846534  0.14476477  0.55243022     0.87240
C621        C  0.36782185  0.14350557  0.44028345     0.87270
C622        C  0.45700939  0.15104312  0.55934873     0.87440
O623        O  0.55299000  0.18149883  0.37573547    -0.74870
O624        O  0.48663522  0.17992080  0.61603297    -0.74900
O625        O  0.48665190  0.17991434  0.37567055    -0.74960
O626        O  0.55285255  0.18109725  0.61610439    -0.75000
O627        O  0.55421817  0.12606436  0.61707349    -0.74940
O628        O  0.48872497  0.12489524  0.37598320    -0.74910
O629        O  0.48844869  0.12486821  0.61707796    -0.74890
O630        O  0.55458270  0.12644251  0.37590151    -0.74960
Ni631      Ni  0.51970481  0.18264220  0.32921319     1.25410
Ni632      Ni  0.52156375  0.12369994  0.32988985     1.25360
C633        C  0.56318092  0.15404257  0.39277960     0.87310
C634        C  0.47827397  0.15209794  0.59947923     0.87240
C635        C  0.47828236  0.15208907  0.39276442     0.87270
C636        C  0.56282416  0.15354372  0.59954539     0.87440
C637        C  0.14130164  0.79271970  0.33432769    -0.02930
O638        O  0.12263369  0.65780772  0.54505201    -0.74870
O639        O  0.12905984  0.59004112  0.45697703    -0.74900
O640        O  0.12860927  0.59122617  0.54953935    -0.74960
O641        O  0.12263420  0.65627534  0.45675178    -0.75000
O642        O  0.17760509  0.66158003  0.45965051    -0.74940
O643        O  0.18384018  0.59400070  0.54957016    -0.74910
O644        O  0.18410542  0.59483935  0.45653576    -0.74890
O645        O  0.17776397  0.66054314  0.54825412    -0.74960
Ni646      Ni  0.12384599  0.62318145  0.50214741     1.25410
Ni647      Ni  0.18287892  0.62742271  0.50347958     1.25360
C648        C  0.14905685  0.67200198  0.55849818     0.87310
C649        C  0.15736748  0.58307918  0.43979735     0.87240
C650        C  0.15690691  0.58328929  0.56663627     0.87270
C651        C  0.14894155  0.67153284  0.44591148     0.87440
C652        C  0.13845681  0.25035695  0.33454776    -0.02930
O653        O  0.18581781  0.44342495  0.45797842    -0.74870
O654        O  0.17749956  0.37627249  0.54816397    -0.74900
O655        O  0.18038737  0.37668695  0.46027745    -0.74960
O656        O  0.18460665  0.44295518  0.55118101    -0.75000
O657        O  0.12953058  0.44887736  0.54897265    -0.74940
O658        O  0.12516574  0.38208106  0.45927202    -0.74910
O659        O  0.12253101  0.38294579  0.54740703    -0.74890
O660        O  0.13063094  0.44836265  0.45659846    -0.74960
Ni661      Ni  0.18416764  0.41014144  0.50460751     1.25410
Ni662      Ni  0.12510727  0.41625566  0.50292707     1.25360
C663        C  0.15899282  0.45519611  0.44022286     0.87310
C664        C  0.14844750  0.36678685  0.55946805     0.87240
C665        C  0.15185509  0.36699975  0.44741265     0.87270
C666        C  0.15769811  0.45527797  0.56703887     0.87440
O667        O  0.13122850  0.48666290  0.62388163    -0.74870
O668        O  0.13111947  0.55198632  0.38274987    -0.74900
O669        O  0.13066098  0.55228819  0.62376152    -0.74960
O670        O  0.13208339  0.48638544  0.38284485    -0.75000
O671        O  0.18743198  0.48596659  0.38351707    -0.74940
O672        O  0.18600651  0.55219530  0.62346341    -0.74910
O673        O  0.18644749  0.55214027  0.38330535    -0.74890
O674        O  0.18656151  0.48602614  0.62364132    -0.74960
Ni675      Ni  0.12941990  0.51933252  0.33665953     1.25410
Ni676      Ni  0.18866347  0.51908048  0.33680090     1.25360
C677        C  0.15871031  0.47692618  0.60682514     0.87310
C678        C  0.15856484  0.56146114  0.39998547     0.87240
C679        C  0.15804031  0.56166881  0.60661666     0.87270
C680        C  0.15978694  0.47676091  0.40019695     0.87440
C681        C  0.13425517  0.00585906  0.32183699     0.00120
C682        C  0.13525218  0.04049758  0.31943502     0.00120
C683        C  0.99972926  0.14291997  0.33994947     0.00120
C684        C  0.03417105  0.14466553  0.33700239     0.00120
C685        C  0.99927782  0.89724176  0.33861956     0.00120
C686        C  0.03380348  0.89838377  0.33225966     0.00120
C687        C  0.89892655  0.00281471  0.33168062     0.00120
C688        C  0.89823508  0.03719031  0.32990874     0.00120
C689        C  0.97962899  0.95470369  0.36507134    -0.02290
C690        C  0.97823516  0.92844228  0.33404584     0.07390
C691        C  0.95521052  0.93109687  0.63172060    -0.02400
C692        C  0.93353954  0.95853816  0.62790710    -0.02410
C693        C  0.93078186  0.98192180  0.32929045     0.07520
C694        C  0.95573358  0.98084216  0.36339575    -0.02600
Br695      Br  0.95693322  0.01280573  0.41085018    -0.01150
Br696      Br  0.01181933  0.95356771  0.41330511    -0.01220
Br697      Br  0.91185368  0.96654017  0.57121204    -0.01180
Br698      Br  0.95531843  0.89860382  0.58478918    -0.01170
C699        C  0.94533772  0.11456753  0.34080660    -0.02290
C700        C  0.97945134  0.10978839  0.33920027     0.07390
C701        C  0.98735952  0.07644815  0.65705127    -0.02400
C702        C  0.96075669  0.05521064  0.64347495    -0.02410
C703        C  0.92923141  0.05888199  0.33140536     0.07520
C704        C  0.92677129  0.08787272  0.35594712    -0.02600
Br705      Br  0.91501241  0.08506066  0.41801172    -0.01150
Br706      Br  0.93239296  0.13291910  0.28391070    -0.01220
Br707      Br  0.96854251  0.02800076  0.59280271    -0.01180
Br708      Br  0.01986166  0.04800496  0.68445686    -0.01170
C709        C  0.08846413  0.07668846  0.61950007    -0.02290
C710        C  0.10342749  0.06095020  0.32410012     0.07390
C711        C  0.09374979  0.07255137  0.36686065    -0.02400
C712        C  0.07188545  0.10019307  0.37104265    -0.02410
C713        C  0.05518979  0.11355086  0.33312954     0.07520
C714        C  0.06142350  0.09888659  0.62453323    -0.02600
Br715      Br  0.03215625  0.10703107  0.57412762    -0.01150
Br716      Br  0.11080550  0.07728273  0.56227973    -0.01220
Br717      Br  0.06140442  0.11672893  0.42948704    -0.01180
Br718      Br  0.11200282  0.05256980  0.42012818    -0.01170
C719        C  0.04987597  0.95730217  0.63050491    -0.02290
C720        C  0.05427303  0.93082878  0.32865778     0.07390
C721        C  0.08642051  0.93003469  0.34640576    -0.02400
C722        C  0.10134911  0.95974692  0.35802311    -0.02410
C723        C  0.10152105  0.98554952  0.32622961     0.07520
C724        C  0.07423282  0.98345862  0.62766405    -0.02600
Br725      Br  0.07131066  0.01016285  0.57515575    -0.01150
Br726      Br  0.02038314  0.95119250  0.58066744    -0.01220
Br727      Br  0.12148346  0.96259564  0.41575719    -0.01180
Br728      Br  0.11164053  0.90951872  0.30025461    -0.01170
C729        C  0.08354616  0.17776152  0.31217914    -0.02290
C730        C  0.05441884  0.17697399  0.33746495     0.07390
C731        C  0.05219681  0.20379986  0.70203833    -0.02400
C732        C  0.07568974  0.23106298  0.69995380    -0.02410
C733        C  0.10569402  0.22773347  0.33897583     0.07520
C734        C  0.11046064  0.19428380  0.33041842    -0.02600
Br735      Br  0.12507075  0.17466653  0.38681710    -0.01150
Br736      Br  0.08379156  0.16857026  0.24968184    -0.01220
Br737      Br  0.06941094  0.26372514  0.74633230    -0.01180
Br738      Br  0.02863640  0.19771126  0.75665299    -0.01170
C739        C  0.11826904  0.28100853  0.59246885    -0.02290
C740        C  0.14316931  0.27216489  0.62463325     0.07390
C741        C  0.17237648  0.29165961  0.62376199    -0.02400
C742        C  0.17006641  0.32470290  0.61240900    -0.02410
C743        C  0.14489921  0.33502570  0.58303480     0.07520
C744        C  0.12039098  0.31187127  0.56993350    -0.02600
Br745      Br  0.08943679  0.32183639  0.52192716    -0.01150
Br746      Br  0.07970259  0.25447378  0.58098737    -0.01220
Br747      Br  0.20394791  0.35374892  0.63467890    -0.01180
Br748      Br  0.21453804  0.27327864  0.60679234    -0.01170
C749        C  0.15889622  0.30591971  0.43734578    -0.02290
C750        C  0.14886653  0.33707009  0.42022301     0.07390
C751        C  0.12906025  0.33867592  0.38204654    -0.02400
C752        C  0.11938775  0.30960555  0.36120660    -0.02410
C753        C  0.13601108  0.27842617  0.37135751     0.07520
C754        C  0.15046824  0.27662582  0.41464121    -0.02600
Br755      Br  0.15400577  0.23575555  0.44742617    -0.01150
Br756      Br  0.18526817  0.30300281  0.49118492    -0.01220
Br757      Br  0.07753063  0.31393318  0.32897189    -0.01180
Br758      Br  0.11549067  0.38119893  0.35740056    -0.01170
C759        C  0.08708993  0.82325024  0.62887721    -0.02290
C760        C  0.10868568  0.81687588  0.33436613     0.07390
C761        C  0.10210524  0.83836909  0.37177013    -0.02400
C762        C  0.07366743  0.85949602  0.37319801    -0.02410
C763        C  0.05514263  0.86701804  0.33450572     0.07520
C764        C  0.06262734  0.84922350  0.62889870    -0.02600
Br765      Br  0.03912939  0.86192485  0.57464529    -0.01150
Br766      Br  0.08922963  0.80073392  0.57142590    -0.01220
Br767      Br  0.05977509  0.87922837  0.42878004    -0.01180
Br768      Br  0.12951695  0.83957628  0.42494043    -0.01170
C769        C  0.12004222  0.75686883  0.40667804    -0.02290
C770        C  0.14480994  0.76531944  0.37340456     0.07390
C771        C  0.17171755  0.74093984  0.36925635    -0.02400
C772        C  0.16931395  0.70908548  0.38720909    -0.02410
C773        C  0.14622926  0.70259652  0.42007501     0.07520
C774        C  0.12332884  0.72737047  0.43215822    -0.02600
Br775      Br  0.09625547  0.72080051  0.48493654    -0.01150
Br776      Br  0.07834080  0.77932272  0.41935106    -0.01220
Br777      Br  0.19701376  0.67322600  0.36491939    -0.01180
Br778      Br  0.21415919  0.74810655  0.67442840    -0.01170
C779        C  0.11466515  0.74089201  0.62989901    -0.02290
C780        C  0.13940769  0.76660195  0.62739675     0.07390
C781        C  0.16453126  0.76052411  0.59440930    -0.02400
C782        C  0.16593436  0.73063952  0.57017164    -0.02410
C783        C  0.14614990  0.70382176  0.58247935     0.07520
C784        C  0.12064829  0.70911585  0.61289777    -0.02600
Br785      Br  0.09471252  0.67215332  0.63377135    -0.01150
Br786      Br  0.07114538  0.74672420  0.32123671    -0.01220
Br787      Br  0.19506956  0.72670851  0.51887211    -0.01180
Br788      Br  0.20111192  0.78793706  0.58253967    -0.01170
C789        C  0.16766844  0.08995518  0.34512062    -0.02290
C790        C  0.16781856  0.06101859  0.32031134     0.07390
C791        C  0.19456100  0.05938105  0.62295577    -0.02400
C792        C  0.22120726  0.08317195  0.62428149    -0.02410
C793        C  0.22381982  0.10739552  0.32749498     0.07520
C794        C  0.19699309  0.10473834  0.35842695    -0.02600
Br795      Br  0.19154406  0.12755852  0.41379829    -0.01150
Br796      Br  0.14323289  0.12291519  0.31430587    -0.01220
Br797      Br  0.24790681  0.08279326  0.56989525    -0.01180
Br798      Br  0.18971055  0.03225384  0.57104756    -0.01170
C799        C  0.19813553  0.22390821  0.69527021    -0.02290
C800        C  0.17098331  0.22563229  0.33147554     0.07390
C801        C  0.17496919  0.20327778  0.29431271    -0.02400
C802        C  0.19812413  0.17622310  0.29458106    -0.02410
C803        C  0.22166624  0.17106444  0.33011646     0.07520
C804        C  0.21836427  0.19495481  0.69955263    -0.02600
Br805      Br  0.23815980  0.19197750  0.75922737    -0.01150
Br806      Br  0.21934004  0.26364444  0.71667280    -0.01220
Br807      Br  0.19736006  0.14774656  0.24201211    -0.01180
Br808      Br  0.15326412  0.21154971  0.23728833    -0.01170
C809        C  0.29734854  0.16935620  0.36615402    -0.02290
C810        C  0.27336206  0.14287816  0.36960126     0.07390
C811        C  0.28103209  0.11810847  0.40332886    -0.02400
C812        C  0.31141541  0.11934768  0.42754536    -0.02410
C813        C  0.33641923  0.14152906  0.41501867     0.07520
C814        C  0.32953663  0.16554556  0.38298564    -0.02600
Br815      Br  0.36528831  0.19231581  0.35963684    -0.01150
Br816      Br  0.28956768  0.21204461  0.67171734    -0.01220
Br817      Br  0.31885480  0.09039269  0.47860798    -0.01180
Br818      Br  0.25519697  0.07930845  0.41692401    -0.01170
C819        C  0.30969604  0.16292390  0.56395649    -0.02290
C820        C  0.33690565  0.14297513  0.57702557     0.07390
C821        C  0.33266600  0.11898527  0.60977329    -0.02400
C822        C  0.30115865  0.11386412  0.62792469    -0.02410
C823        C  0.27450151  0.13847663  0.62335891     0.07520
C824        C  0.28014876  0.16341725  0.58919584    -0.02600
Br825      Br  0.25369653  0.20242043  0.57531689    -0.01150
Br826      Br  0.31281015  0.18975926  0.51001696    -0.01220
Br827      Br  0.29714946  0.07142262  0.65758434    -0.01180
Br828      Br  0.37088574  0.09402358  0.63199727    -0.01170
C829        C  0.84533523  0.11195902  0.31153999    -0.02290
C830        C  0.81391214  0.10892977  0.33025226     0.07390
C831        C  0.81323542  0.08075662  0.69480108    -0.02400
C832        C  0.84102130  0.05772052  0.69694107    -0.02410
C833        C  0.86560660  0.05748017  0.32949263     0.07520
C834        C  0.86247012  0.08340072  0.29843691    -0.02600
Br835      Br  0.88136512  0.08089547  0.23967995    -0.01150
Br836      Br  0.86964347  0.13584748  0.35590762    -0.01220
Br837      Br  0.84787704  0.03242675  0.75084153    -0.01180
Br838      Br  0.78037914  0.07266750  0.74062158    -0.01170
C839        C  0.76135318  0.11943545  0.58317532    -0.02290
C840        C  0.76889314  0.14481925  0.61399260     0.07390
C841        C  0.74801907  0.17333979  0.61135241    -0.02400
C842        C  0.71469334  0.16954995  0.60250275    -0.02410
C843        C  0.70506835  0.14315521  0.57578106     0.07520
C844        C  0.72951612  0.11942921  0.56267618    -0.02600
Br845      Br  0.72006205  0.08652826  0.51796076    -0.01150
Br846      Br  0.79157285  0.08374567  0.56980334    -0.01220
Br847      Br  0.68420191  0.20282400  0.62425723    -0.01180
Br848      Br  0.76450555  0.21479899  0.25581685    -0.01170
C849        C  0.73116180  0.11930548  0.35131661    -0.02290
C850        C  0.76133423  0.13660199  0.36129817     0.07390
C851        C  0.76391655  0.14871018  0.40546240    -0.02400
C852        C  0.73467388  0.15489549  0.43004579    -0.02410
C853        C  0.70344867  0.14503743  0.41331623     0.07520
C854        C  0.70198653  0.12677007  0.37412620    -0.02600
Br855      Br  0.65974194  0.11206155  0.35088520    -0.01150
Br856      Br  0.73017679  0.07746297  0.65357237    -0.01220
Br857      Br  0.73754805  0.17996666  0.48403784    -0.01180
Br858      Br  0.80653900  0.15533187  0.43375278    -0.01170
C859        C  0.22106801  0.96477017  0.35165832    -0.02290
C860        C  0.22258955  0.93730480  0.32140512     0.07390
C861        C  0.19966623  0.94138142  0.61734341    -0.02400
C862        C  0.17203263  0.96350356  0.61809499    -0.02410
C863        C  0.16649713  0.98474984  0.32101015     0.07520
C864        C  0.19208055  0.98561845  0.35409166    -0.02600
Br865      Br  0.18852005  0.01482907  0.40436181    -0.01150
Br866      Br  0.26065851  0.98405808  0.37725834    -0.01220
Br867      Br  0.14260161  0.96629611  0.56617318    -0.01180
Br868      Br  0.20628056  0.92136981  0.55988584    -0.01170
C869        C  0.22599782  0.84383967  0.36361440    -0.02290
C870        C  0.22322663  0.87172393  0.33171884     0.07390
C871        C  0.18977714  0.87538406  0.65323701    -0.02400
C872        C  0.17209447  0.84725080  0.64026250    -0.02410
C873        C  0.17212304  0.81866790  0.33552030     0.07520
C874        C  0.19881766  0.82050861  0.36888868    -0.02600
Br875      Br  0.19797532  0.79735524  0.42677684    -0.01150
Br876      Br  0.26084239  0.83774300  0.40858441    -0.01220
Br877      Br  0.15210520  0.85106992  0.58204763    -0.01180
Br878      Br  0.16931189  0.89776256  0.70300649    -0.01170
C879        C  0.27482056  0.88365776  0.58226114    -0.02290
C880        C  0.26827153  0.90838336  0.61447248     0.07390
C881        C  0.29021900  0.93573416  0.61269299    -0.02400
C882        C  0.32330231  0.93070612  0.60067045    -0.02410
C883        C  0.33187104  0.90319598  0.57467294     0.07520
C884        C  0.30612719  0.88173775  0.56128871    -0.02600
Br885      Br  0.31301407  0.84899860  0.51515474    -0.01150
Br886      Br  0.24371208  0.85095116  0.56722731    -0.01220
Br887      Br  0.35550151  0.96237965  0.62039554    -0.01180
Br888      Br  0.27392557  0.97999313  0.26841520    -0.01170
C889        C  0.30543545  0.88135809  0.35076294    -0.02290
C890        C  0.27589757  0.90090183  0.36074674     0.07390
C891        C  0.27551387  0.91446785  0.40427487    -0.02400
C892        C  0.30567619  0.91880117  0.42808881    -0.02410
C893        C  0.33574781  0.90484927  0.41241706     0.07520
C894        C  0.33537587  0.88639415  0.37341953    -0.02600
Br895      Br  0.37635941  0.86732203  0.35097466    -0.01150
Br896      Br  0.30469714  0.83978623  0.65183501    -0.01220
Br897      Br  0.30541538  0.94446666  0.48187059    -0.01180
Br898      Br  0.23454956  0.91922696  0.43689908    -0.01170
C899        C  0.83976108  0.93663064  0.37574222    -0.02290
C900        C  0.81322786  0.93509705  0.34302583     0.07390
C901        C  0.81192781  0.96322054  0.64647207    -0.02400
C902        C  0.84020947  0.98335468  0.64006376    -0.02410
C903        C  0.86727970  0.98256630  0.33723728     0.07520
C904        C  0.86469605  0.96077211  0.37394647    -0.02600
Br905      Br  0.89442130  0.96425034  0.42479798    -0.01150
Br906      Br  0.84678263  0.90508395  0.42350508    -0.01220
Br907      Br  0.84181687  0.00870244  0.58554618    -0.01180
Br908      Br  0.77226518  0.98211207  0.61994291    -0.01170
C909        C  0.70256407  0.91477683  0.37808099    -0.02290
C910        C  0.70333736  0.89665316  0.41819691     0.07390
C911        C  0.73415432  0.89256397  0.44046712    -0.02400
C912        C  0.76307232  0.90643932  0.42199514    -0.02410
C913        C  0.76258981  0.91196828  0.37624749     0.07520
C914        C  0.73227470  0.92838240  0.36285559    -0.02600
Br915      Br  0.72871780  0.97524276  0.70646529    -0.01150
Br916      Br  0.66104552  0.92807621  0.35053444    -0.01220
Br917      Br  0.78004769  0.94295136  0.45482194    -0.01180
Br918      Br  0.73706655  0.86786847  0.49521960    -0.01170
C919        C  0.74231867  0.86689910  0.64056197    -0.02290
C920        C  0.76715836  0.89199223  0.63396559     0.07390
C921        C  0.76176886  0.91163343  0.59574797    -0.02400
C922        C  0.72946370  0.91643998  0.57772126    -0.02410
C923        C  0.70393944  0.89421601  0.58825628     0.07520
C924        C  0.71102874  0.86875978  0.61889002    -0.02600
Br925      Br  0.67593920  0.83861609  0.63555781    -0.01150
Br926      Br  0.74768444  0.82952035  0.34621528    -0.01620
Br927      Br  0.72162285  0.95185898  0.53534152    -0.01180
Br928      Br  0.79796492  0.91925249  0.55668224    -0.01170
C929        C  0.95150222  0.22664213  0.64896963    -0.02290
C930        C  0.92348100  0.22431369  0.67835991     0.07390
C931        C  0.92726305  0.19857260  0.37850705    -0.02400
C932        C  0.95574597  0.17743219  0.38093976    -0.02410
C933        C  0.97826153  0.17503866  0.34514643     0.07520
C934        C  0.97533160  0.20017950  0.64531880    -0.02600
Br935      Br  0.00062658  0.19698576  0.59132554    -0.01150
Br936      Br  0.96229381  0.26662527  0.61798561    -0.01220
Br937      Br  0.96384016  0.15048723  0.43399233    -0.01180
Br938      Br  0.89650090  0.19280534  0.42658557    -0.01170
C939        C  0.86123510  0.20275957  0.63248659    -0.02290
C940        C  0.86010132  0.22577005  0.33552224     0.07390
C941        C  0.82697794  0.23025839  0.35150422    -0.02400
C942        C  0.80330314  0.20416226  0.35033058    -0.02410
C943        C  0.81006170  0.17481863  0.32509667     0.07520
C944        C  0.83472915  0.18059825  0.62464932    -0.02600
Br945      Br  0.83282867  0.16008598  0.56596012    -0.01150
Br946      Br  0.89560143  0.20314117  0.58713146    -0.01220
Br947      Br  0.75844487  0.21615634  0.36903868    -0.01180
Br948      Br  0.80783409  0.27383013  0.35434170    -0.01170
C949        C  0.92551650  0.31540068  0.41465275    -0.02290
C950        C  0.89571907  0.33005481  0.42982060     0.07390
C951        C  0.86743870  0.30933742  0.43532090    -0.02400
C952        C  0.86821277  0.27652704  0.41983601    -0.02410
C953        C  0.89543848  0.26506268  0.39432112     0.07520
C954        C  0.92584546  0.28214129  0.40250382    -0.02600
Br955      Br  0.96821383  0.26002458  0.41043527    -0.01150
Br956      Br  0.96670816  0.33944786  0.40838961    -0.01220
Br957      Br  0.83958451  0.24589909  0.45081864    -0.01180
Br958      Br  0.82687656  0.32369292  0.46473997    -0.01170
C959        C  0.89007690  0.31433437  0.66065528    -0.02290
C960        C  0.88834813  0.28047849  0.64627921     0.07390
C961        C  0.88362386  0.27798766  0.59964255    -0.02400
C962        C  0.89705139  0.30208791  0.57184806    -0.02410
C963        C  0.90578946  0.33308507  0.58853748     0.07520
C964        C  0.90648799  0.33751521  0.63444744    -0.02600
Br965      Br  0.91769258  0.38022844  0.65858038    -0.01150
Br966      Br  0.84955338  0.33791267  0.34107377    -0.01220
Br967      Br  0.91441855  0.28707735  0.51700003    -0.01180
Br968      Br  0.84092702  0.26564320  0.57634391    -0.01170
C969        C  0.84379860  0.86905625  0.64366725    -0.02290
C970        C  0.81746211  0.87087696  0.34281917     0.07390
C971        C  0.81849186  0.84320052  0.37357753    -0.02400
C972        C  0.83977132  0.81461705  0.36808190    -0.02410
C973        C  0.86459605  0.81291127  0.33305804     0.07520
C974        C  0.86429682  0.84073874  0.63693556    -0.02600
Br975      Br  0.89301095  0.84187394  0.58461126    -0.01150
Br976      Br  0.86256844  0.90724982  0.61540644    -0.01220
Br977      Br  0.83542160  0.78170654  0.41658631    -0.01180
Br978      Br  0.79644633  0.84396658  0.43033827    -0.01170
C979        C  0.92746174  0.83855917  0.70746422    -0.02290
C980        C  0.92761105  0.81390573  0.33892405     0.07390
C981        C  0.95559005  0.81766509  0.30899463    -0.02400
C982        C  0.98333627  0.83621186  0.32206965    -0.02410
C983        C  0.97886635  0.86522908  0.34669212     0.07520
C984        C  0.95153405  0.86434358  0.70950838    -0.02600
Br985      Br  0.95070205  0.89454004  0.75891623    -0.01150
Br986      Br  0.89775207  0.83682681  0.75782154    -0.01220
Br987      Br  0.01358214  0.80599644  0.35004977    -0.01180
Br988      Br  0.96247254  0.79943197  0.25005029    -0.01170
C989        C  0.92007804  0.70725237  0.60865228    -0.02290
C990        C  0.89520570  0.70287387  0.57698869     0.07390
C991        C  0.87601128  0.73038889  0.56294780    -0.02400
C992        C  0.87669947  0.76055086  0.58700989    -0.02410
C993        C  0.90115185  0.76514154  0.62254565     0.07520
C994        C  0.92602414  0.73871125  0.62600051    -0.02600
Br995      Br  0.96675364  0.74047630  0.32680143    -0.01150
Br996      Br  0.94393469  0.66875569  0.63236389    -0.01220
Br997      Br  0.83792496  0.78843311  0.57323266    -0.01180
Br998      Br  0.84735795  0.72600594  0.51106729    -0.01170
C999        C  0.87219334  0.70225703  0.38087489    -0.02290
C1000       C  0.89456590  0.69686911  0.41568751     0.07390
C1001       C  0.91621549  0.72207176  0.42865781    -0.02400
C1002       C  0.91726972  0.75235504  0.40488885    -0.02410
C1003       C  0.89397769  0.75932664  0.36875124     0.07520
C1004       C  0.86983398  0.73332426  0.36019844    -0.02600
Br1005     Br  0.82911464  0.73907007  0.32556143    -0.01150
Br1006     Br  0.84477530  0.66598960  0.36070908    -0.01220
Br1007     Br  0.95429478  0.77918922  0.42357131    -0.01180
Br1008     Br  0.94505661  0.71495317  0.48038311    -0.01170
C1009       C  0.89680331  0.78844860  0.99907448    -0.02930
O1010       O  0.91908535  0.65134809  0.78781658    -0.74870
O1011       O  0.91554330  0.58906604  0.88381824    -0.74900
O1012       O  0.91477216  0.58568927  0.79165845    -0.74960
O1013       O  0.91919970  0.65571123  0.87567765    -0.75000
O1014       O  0.86400483  0.65876774  0.87823643    -0.74940
O1015       O  0.85957952  0.59056294  0.78981571    -0.74910
O1016       O  0.86024355  0.59161049  0.88304373    -0.74890
O1017       O  0.86401153  0.65716301  0.78996905    -0.74960
Ni1018     Ni  0.91901654  0.61982808  0.83498566     1.25410
Ni1019     Ni  0.85986036  0.62415519  0.83535391     1.25360
C1020       C  0.89241739  0.66646102  0.77598043     0.87310
C1021       C  0.88760316  0.58097493  0.90058019     0.87240
C1022       C  0.88672084  0.57884375  0.77381586     0.87270
C1023       C  0.89250705  0.67053661  0.88778199     0.87440
C1024       C  0.89132140  0.24905761  0.01303058    -0.02930
O1025       O  0.91962043  0.44382278  0.79033647    -0.74870
O1026       O  0.92825803  0.37794096  0.88151206    -0.74900
O1027       O  0.92348303  0.37690256  0.79426491    -0.74960
O1028       O  0.92151106  0.44474440  0.88323417    -0.75000
O1029       O  0.86651914  0.43982059  0.88622360    -0.74940
O1030       O  0.86860318  0.37712054  0.79282451    -0.74910
O1031       O  0.87318010  0.37266908  0.88103419    -0.74890
O1032       O  0.86440788  0.44275404  0.79351174    -0.74960
Ni1033     Ni  0.92519085  0.41158772  0.83709336     1.25410
Ni1034     Ni  0.86616696  0.40842597  0.83872099     1.25360
C1035       C  0.89114138  0.45253718  0.77470281     0.87310
C1036       C  0.90235365  0.36251715  0.89312720     0.87240
C1037       C  0.89607422  0.36357062  0.78273921     0.87270
C1038       C  0.89348786  0.45172728  0.90155768     0.87440
O1039       O  0.91720110  0.48375492  0.71739751    -0.74870
O1040       O  0.91534341  0.54996639  0.95810577    -0.74900
O1041       O  0.91451925  0.54916851  0.71709608    -0.74960
O1042       O  0.91881692  0.48413991  0.95830393    -0.75000
O1043       O  0.86353578  0.48228715  0.95688133    -0.74940
O1044       O  0.85919272  0.54818372  0.71614476    -0.74910
O1045       O  0.86005569  0.54856287  0.95640354    -0.74890
O1046       O  0.86190141  0.48237509  0.71660063    -0.74960
Ni1047     Ni  0.91834332  0.51682967  0.67107929     1.25410
Ni1048     Ni  0.85914181  0.51527387  0.00300256     1.25360
C1049       C  0.88986045  0.47383155  0.73425761     0.87310
C1050       C  0.88751349  0.55895236  0.94041959     0.87240
C1051       C  0.88654318  0.55776919  0.73375249     0.87270
C1052       C  0.89188569  0.47367263  0.94086989     0.87440
C1053       C  0.79086694  0.90235221  0.67454874    -0.02930
O1054       O  0.65844297  0.91948005  0.88069869    -0.74870
O1055       O  0.59206810  0.91520494  0.78819941    -0.74900
O1056       O  0.59181158  0.91489051  0.88069223    -0.74960
O1057       O  0.65863318  0.91966458  0.79123780    -0.75000
O1058       O  0.66309735  0.86468364  0.79018299    -0.74940
O1059       O  0.59615409  0.86000436  0.88147196    -0.74910
O1060       O  0.59581590  0.86028375  0.78806525    -0.74890
O1061       O  0.66342143  0.86476178  0.87932957    -0.74960
Ni1062     Ni  0.62469571  0.91914781  0.83516209     1.25410
Ni1063     Ni  0.62935563  0.86038037  0.83479956     1.25360
C1064       C  0.67325843  0.89286832  0.89340613     0.87310
C1065       C  0.58440835  0.88735979  0.77103034     0.87240
C1066       C  0.58447609  0.88693670  0.89796091     0.87270
C1067       C  0.67291471  0.89320585  0.77772164     0.87440
C1068       C  0.24669296  0.90425053  0.65829723    -0.02930
O1069       O  0.37660062  0.87231525  0.87671120    -0.74870
O1070       O  0.44275821  0.86626299  0.78583311    -0.74900
O1071       O  0.44338744  0.86563854  0.87881108    -0.74960
O1072       O  0.37566448  0.87378667  0.78784533    -0.75000
O1073       O  0.38040741  0.92858135  0.78718691    -0.74940
O1074       O  0.44700867  0.92045164  0.87932887    -0.74910
O1075       O  0.44758825  0.92098889  0.78632712    -0.74890
O1076       O  0.37976447  0.92706989  0.87513675    -0.74960
Ni1077     Ni  0.40985968  0.86750659  0.83226158     1.25410
Ni1078     Ni  0.41443281  0.92616014  0.83213295     1.25360
C1079       C  0.36494489  0.90072312  0.88703696     0.87310
C1080       C  0.45469332  0.89277504  0.76922399     0.87240
C1081       C  0.45473407  0.89212276  0.89617979     0.87270
C1082       C  0.36557123  0.90249638  0.77473991     0.87440
O1083       O  0.48543773  0.86292325  0.71346503    -0.74870
O1084       O  0.55227312  0.85943031  0.95445296    -0.74900
O1085       O  0.55213788  0.85983174  0.71444038    -0.74960
O1086       O  0.48557096  0.86247857  0.95346964    -0.75000
O1087       O  0.48728029  0.91742070  0.95320494    -0.74940
O1088       O  0.55339003  0.91479257  0.71327309    -0.74910
O1089       O  0.55344827  0.91440428  0.95419991    -0.74890
O1090       O  0.48723734  0.91787035  0.71238707    -0.74960
Ni1091     Ni  0.51877849  0.85912437  0.66734022     1.25410
Ni1092     Ni  0.52040245  0.91793568  0.66655583     1.25360
C1093       C  0.47675049  0.89100984  0.72974088     0.87310
C1094       C  0.56245725  0.88665361  0.93751652     0.87240
C1095       C  0.56235169  0.88712351  0.73093305     0.87270
C1096       C  0.47683334  0.89045513  0.93625416     0.87440
C1097       C  0.78921397  0.14064479  0.65862415    -0.02930
O1098       O  0.59514700  0.18044137  0.78316784    -0.74870
O1099       O  0.66217841  0.17405495  0.87371157    -0.74900
O1100       O  0.66240295  0.17596378  0.78597371    -0.74960
O1101       O  0.59523773  0.17976632  0.87619369    -0.75000
O1102       O  0.59171903  0.12490503  0.87548119    -0.74940
O1103       O  0.65946347  0.12097329  0.78675607    -0.74910
O1104       O  0.65803514  0.11928478  0.87501496    -0.74890
O1105       O  0.59266270  0.12547288  0.78320480    -0.74960
Ni1106     Ni  0.62833613  0.17962540  0.82986000     1.25410
Ni1107     Ni  0.62486059  0.12077651  0.83001773     1.25360
C1108       C  0.58464938  0.15351981  0.76610375     0.87310
C1109       C  0.67293300  0.14552082  0.88614254     0.87240
C1110       C  0.67344457  0.14765002  0.77409944     0.87270
C1111       C  0.58419475  0.15285545  0.89286316     0.87440
C1112       C  0.24745041  0.13972934  0.66262477    -0.02930
O1113       O  0.45016514  0.12286433  0.78374144    -0.74870
O1114       O  0.38272113  0.11805302  0.87292678    -0.74900
O1115       O  0.38354463  0.11714659  0.78479661    -0.74960
O1116       O  0.44952409  0.12292935  0.87635375    -0.75000
O1117       O  0.44606898  0.17791700  0.87480746    -0.74940
O1118       O  0.37773339  0.17191451  0.78628526    -0.74910
O1119       O  0.37963571  0.17299301  0.87454097    -0.74890
O1120       O  0.44459270  0.17767975  0.78208955    -0.74960
Ni1121     Ni  0.41720843  0.11832255  0.82955021     1.25410
Ni1122     Ni  0.41229912  0.17714052  0.82928094     1.25360
C1123       C  0.45669635  0.15091811  0.76591597     0.87310
C1124       C  0.36846844  0.14477278  0.88576023     0.87240
C1125       C  0.36782352  0.14351096  0.77361382     0.87270
C1126       C  0.45701075  0.15104728  0.89268009     0.87440
O1127       O  0.55299125  0.18150027  0.70906715    -0.74870
O1128       O  0.48663434  0.17992392  0.94936784    -0.74900
O1129       O  0.48665345  0.17991604  0.70900076    -0.74960
O1130       O  0.55285174  0.18109855  0.94943986    -0.75000
O1131       O  0.55421633  0.12606572  0.95040838    -0.74940
O1132       O  0.48872635  0.12489688  0.70931460    -0.74910
O1133       O  0.48844682  0.12487135  0.95041180    -0.74890
O1134       O  0.55458377  0.12644395  0.70923384    -0.74960
Ni1135     Ni  0.51970642  0.18264343  0.66254409     1.25410
Ni1136     Ni  0.52156514  0.12370113  0.66322179     1.25360
C1137       C  0.56318165  0.15404403  0.72611212     0.87310
C1138       C  0.47827340  0.15210146  0.93281269     0.87240
C1139       C  0.47828397  0.15209096  0.72609508     0.87270
C1140       C  0.56282312  0.15354494  0.93288051     0.87440
C1141       C  0.14129767  0.79271622  0.66768796    -0.02930
O1142       O  0.12261891  0.65778862  0.87839760    -0.74870
O1143       O  0.12904720  0.59002858  0.79031378    -0.74900
O1144       O  0.12860216  0.59120816  0.88287815    -0.74960
O1145       O  0.12261555  0.65626251  0.79009677    -0.75000
O1146       O  0.17758630  0.66156895  0.79299081    -0.74940
O1147       O  0.18383283  0.59398674  0.88290281    -0.74910
O1148       O  0.18409239  0.59483062  0.78986862    -0.74890
O1149       O  0.17774934  0.66052642  0.88159499    -0.74960
Ni1150     Ni  0.12383254  0.62316531  0.83548900     1.25410
Ni1151     Ni  0.18286530  0.62741027  0.83681600     1.25360
C1152       C  0.14904214  0.67198357  0.89184164     0.87310
C1153       C  0.15735451  0.58307076  0.77313011     0.87240
C1154       C  0.15690159  0.58327436  0.89997270     0.87270
C1155       C  0.14892186  0.67152140  0.77925503     0.87440
C1156       C  0.13845519  0.25035896  0.66787239    -0.02930
O1157       O  0.18581147  0.44342761  0.79130451    -0.74870
O1158       O  0.17749555  0.37627483  0.88148986    -0.74900
O1159       O  0.18038095  0.37668987  0.79360330    -0.74960
O1160       O  0.18460359  0.44295603  0.88450922    -0.75000
O1161       O  0.12952762  0.44887912  0.88230512    -0.74940
O1162       O  0.12515934  0.38208422  0.79260073    -0.74910
O1163       O  0.12252699  0.38294904  0.88073622    -0.74890
O1164       O  0.13062466  0.44836595  0.78992832    -0.74960
Ni1165     Ni  0.18416268  0.41014381  0.83793373     1.25410
Ni1166     Ni  0.12510235  0.41625873  0.83625701     1.25360
C1167       C  0.15898588  0.45519826  0.77354978     0.87310
C1168       C  0.14844369  0.36679034  0.89279641     0.87240
C1169       C  0.15184835  0.36700264  0.78074000     0.87270
C1170       C  0.15769579  0.45527697  0.90037187     0.87440
O1171       O  0.13123025  0.48665499  0.95722718    -0.74870
O1172       O  0.13110682  0.55198373  0.71607674    -0.74900
O1173       O  0.13066237  0.55227882  0.95710776    -0.74960
O1174       O  0.13207418  0.48638375  0.71616916    -0.75000
O1175       O  0.18742273  0.48596730  0.71684013    -0.74940
O1176       O  0.18600784  0.55218521  0.95679847    -0.74910
O1177       O  0.18643483  0.55213983  0.71663153    -0.74890
O1178       O  0.18656312  0.48601748  0.95697860    -0.74960
Ni1179     Ni  0.12940845  0.51933160  0.66998449     1.25410
Ni1180     Ni  0.18865198  0.51908216  0.67012504     1.25360
C1181       C  0.15871050  0.47691989  0.94016417     0.87310
C1182       C  0.15855196  0.56145773  0.73331371     0.87240
C1183       C  0.15803973  0.56165741  0.93995586     0.87270
C1184       C  0.15977839  0.47676109  0.73352149     0.87440
C1185       C  0.13425947  0.00585909  0.65516191     0.00120
C1186       C  0.13525550  0.04049789  0.65276079     0.00120
C1187       C  0.99973109  0.14292025  0.67327754     0.00120
C1188       C  0.03417274  0.14466528  0.67032864     0.00120
C1189       C  0.99927738  0.89724385  0.67195806     0.00120
C1190       C  0.03380416  0.89838614  0.66560319     0.00120
C1191       C  0.89892805  0.00281873  0.66500432     0.00120
C1192       C  0.89823590  0.03719398  0.66323448     0.00120
C1193       C  0.97962796  0.95470634  0.69840476    -0.02290
C1194       C  0.97823513  0.92844434  0.66738046     0.07390
C1195       C  0.95521960  0.93110083  0.96506807    -0.02400
C1196       C  0.93354733  0.95854119  0.96125599    -0.02410
C1197       C  0.93078365  0.98192550  0.66261763     0.07520
C1198       C  0.95573412  0.98084613  0.69672493    -0.02600
Br1199     Br  0.95693421  0.01281130  0.74417726    -0.01150
Br1200     Br  0.01181443  0.95356879  0.74664301    -0.01220
Br1201     Br  0.91186448  0.96654514  0.90455946    -0.01180
Br1202     Br  0.95532535  0.89860668  0.91813811    -0.01170
C1203       C  0.94533930  0.11456945  0.67413423    -0.02290
C1204       C  0.97945280  0.10978935  0.67252816     0.07390
C1205       C  0.98736387  0.07645448  0.99040754    -0.02400
C1206       C  0.96076365  0.05521392  0.97683037    -0.02410
C1207       C  0.92923209  0.05888498  0.66473169     0.07520
C1208       C  0.92677228  0.08787524  0.68927420    -0.02600
Br1209     Br  0.91501258  0.08506328  0.75133866    -0.01150
Br1210     Br  0.93239475  0.13292141  0.61723860    -0.01220
Br1211     Br  0.96855525  0.02800315  0.92616097    -0.01180
Br1212     Br  0.01986644  0.04801825  0.01782518    -0.01170
C1213       C  0.08845892  0.07670345  0.95282492    -0.02290
C1214       C  0.10343007  0.06094974  0.65742602     0.07390
C1215       C  0.09375309  0.07255177  0.70018640    -0.02400
C1216       C  0.07188819  0.10019309  0.70436831    -0.02410
C1217       C  0.05519184  0.11355049  0.66645542     0.07520
C1218       C  0.06141716  0.09889868  0.95786726    -0.02600
Br1219     Br  0.03214231  0.10704400  0.90746981    -0.01150
Br1220     Br  0.11078987  0.07729859  0.89559689    -0.01220
Br1221     Br  0.06140764  0.11672899  0.76281278    -0.01180
Br1222     Br  0.11200924  0.05257275  0.75345387    -0.01170
C1223       C  0.04987775  0.95731317  0.96383542    -0.02290
C1224       C  0.05427474  0.93083093  0.66199640     0.07390
C1225       C  0.08642256  0.93003764  0.67974437    -0.02400
C1226       C  0.10135237  0.95975058  0.69135637    -0.02410
C1227       C  0.10152550  0.98554981  0.65955789     0.07520
C1228       C  0.07423084  0.98347300  0.96098622    -0.02600
Br1229     Br  0.07128853  0.01018397  0.90848607    -0.01150
Br1230     Br  0.02038242  0.95119721  0.91400233    -0.01220
Br1231     Br  0.12148948  0.96260362  0.74908828    -0.01180
Br1232     Br  0.11164402  0.90951717  0.63359782    -0.01170
C1233       C  0.08354604  0.17776250  0.64550295    -0.02290
C1234       C  0.05441976  0.17697387  0.67079064     0.07390
C1235       C  0.05219727  0.20380851  0.03537993    -0.02400
C1236       C  0.07569069  0.23107091  0.03329481    -0.02410
C1237       C  0.10569324  0.22773464  0.67230043     0.07520
C1238       C  0.11046050  0.19428527  0.66374110    -0.02600
Br1239     Br  0.12507206  0.17466709  0.72013820    -0.01150
Br1240     Br  0.08379054  0.16856969  0.58300597    -0.01220
Br1241     Br  0.06941130  0.26373524  0.07967001    -0.01180
Br1242     Br  0.02863658  0.19772021  0.08999445    -0.01170
C1243       C  0.11826418  0.28101572  0.92580744    -0.02290
C1244       C  0.14316589  0.27217299  0.95797049     0.07390
C1245       C  0.17237296  0.29166789  0.95709678    -0.02400
C1246       C  0.17006240  0.32471051  0.94574171    -0.02410
C1247       C  0.14489547  0.33503111  0.91636614     0.07520
C1248       C  0.12038678  0.31187647  0.90326783    -0.02600
Br1249     Br  0.08943318  0.32183871  0.85525963    -0.01150
Br1250     Br  0.07969402  0.25448452  0.91433457    -0.01220
Br1251     Br  0.20394430  0.35375788  0.96800764    -0.01180
Br1252     Br  0.21453369  0.27328800  0.94012292    -0.01170
C1253       C  0.15888961  0.30592226  0.77067271    -0.02290
C1254       C  0.14885967  0.33707274  0.75355029     0.07390
C1255       C  0.12905530  0.33867857  0.71537211    -0.02400
C1256       C  0.11938504  0.30960818  0.69452993    -0.02410
C1257       C  0.13600851  0.27842887  0.70468154     0.07520
C1258       C  0.15046356  0.27662840  0.74796657    -0.02600
Br1259     Br  0.15400083  0.23575770  0.78075074    -0.01150
Br1260     Br  0.18525953  0.30300518  0.82451356    -0.01220
Br1261     Br  0.07752885  0.31393531  0.66229293    -0.01180
Br1262     Br  0.11548550  0.38120167  0.69072677    -0.01170
C1263       C  0.08708384  0.82324108  0.96221675    -0.02290
C1264       C  0.10868298  0.81687435  0.66772279     0.07390
C1265       C  0.10210425  0.83837102  0.70512350    -0.02400
C1266       C  0.07366803  0.85950050  0.70654798    -0.02410
C1267       C  0.05514339  0.86702053  0.66785444     0.07520
C1268       C  0.06263048  0.84922284  0.96223841    -0.02600
Br1269     Br  0.03912933  0.86192508  0.90798754    -0.01150
Br1270     Br  0.08919823  0.80070975  0.90477418    -0.01220
Br1271     Br  0.05977849  0.87923910  0.76212693    -0.01180
Br1272     Br  0.12951779  0.83958046  0.75829263    -0.01170
C1273       C  0.12003334  0.75686623  0.74003772    -0.02290
C1274       C  0.14480259  0.76531569  0.70676533     0.07390
C1275       C  0.17170660  0.74093283  0.70261500    -0.02400
C1276       C  0.16929626  0.70907635  0.72055819    -0.02410
C1277       C  0.14620932  0.70258637  0.75342087     0.07520
C1278       C  0.12331245  0.72736241  0.76550888    -0.02600
Br1279     Br  0.09623362  0.72078708  0.81828085    -0.01150
Br1280     Br  0.07833925  0.77933088  0.75272029    -0.01220
Br1281     Br  0.19699024  0.67321545  0.69825967    -0.01180
Br1282     Br  0.21416535  0.74811026  0.00770688    -0.01170
C1283       C  0.11465947  0.74087808  0.96324304    -0.02290
C1284       C  0.13939910  0.76659015  0.96072220     0.07390
C1285       C  0.16451217  0.76051143  0.92772106    -0.02400
C1286       C  0.16591497  0.73062240  0.90349444    -0.02410
C1287       C  0.14613607  0.70380481  0.91581778     0.07520
C1288       C  0.12064002  0.70910056  0.94624398    -0.02600
Br1289     Br  0.09470863  0.67213856  0.96712905    -0.01150
Br1290     Br  0.07114077  0.74672240  0.65460954    -0.01220
Br1291     Br  0.19504396  0.72668412  0.85218862    -0.01180
Br1292     Br  0.20107811  0.78793251  0.91581099    -0.01170
C1293       C  0.16766893  0.08995791  0.67844515    -0.02290
C1294       C  0.16782095  0.06102034  0.65363774     0.07390
C1295       C  0.19456265  0.05940175  0.95626383    -0.02400
C1296       C  0.22121098  0.08318995  0.95759724    -0.02410
C1297       C  0.22382094  0.10739874  0.66082434     0.07520
C1298       C  0.19699288  0.10474144  0.69175404    -0.02600
Br1299     Br  0.19154184  0.12756138  0.74712509    -0.01150
Br1300     Br  0.14323416  0.12291619  0.64762520    -0.01220
Br1301     Br  0.24791579  0.08281165  0.90321576    -0.01180
Br1302     Br  0.18970798  0.03228502  0.90434634    -0.01170
C1303       C  0.19813610  0.22391802  0.02860211    -0.02290
C1304       C  0.17098248  0.22563506  0.66480135     0.07390
C1305       C  0.17496973  0.20328017  0.62763908    -0.02400
C1306       C  0.19812577  0.17622631  0.62790843    -0.02410
C1307       C  0.22166660  0.17106801  0.66344543     0.07520
C1308       C  0.21836597  0.19496574  0.03288293    -0.02600
Br1309     Br  0.23815872  0.19198623  0.09255914    -0.01150
Br1310     Br  0.21934019  0.26365468  0.05000389    -0.01220
Br1311     Br  0.19736525  0.14775033  0.57533882    -0.01180
Br1312     Br  0.15326373  0.21154968  0.57061487    -0.01170
C1313       C  0.29734848  0.16936140  0.69948606    -0.02290
C1314       C  0.27336228  0.14288308  0.70293318     0.07390
C1315       C  0.28103262  0.11811393  0.73666126    -0.02400
C1316       C  0.31141641  0.11935312  0.76087707    -0.02410
C1317       C  0.33642016  0.14153459  0.74834995     0.07520
C1318       C  0.32953688  0.16555102  0.71631706    -0.02600
Br1319     Br  0.36528807  0.19232135  0.69296711    -0.01150
Br1320     Br  0.28957339  0.21205686  0.00506326    -0.01220
Br1321     Br  0.31885657  0.09039786  0.81193917    -0.01180
Br1322     Br  0.25519654  0.07931514  0.75025833    -0.01170
C1323       C  0.30970152  0.16293607  0.89728800    -0.02290
C1324       C  0.33690975  0.14298535  0.91035633     0.07390
C1325       C  0.33266972  0.11899651  0.94310504    -0.02400
C1326       C  0.30116230  0.11387695  0.96125610    -0.02410
C1327       C  0.27450676  0.13849121  0.95669043     0.07520
C1328       C  0.28015611  0.16343309  0.92253018    -0.02600
Br1329     Br  0.25371080  0.20244244  0.90865971    -0.01150
Br1330     Br  0.31281407  0.18976824  0.84334554    -0.01220
Br1331     Br  0.29715025  0.07143410  0.99091152    -0.01180
Br1332     Br  0.37088835  0.09403316  0.96532918    -0.01170
C1333       C  0.84533528  0.11196249  0.64486955    -0.02290
C1334       C  0.81391260  0.10893298  0.66358314     0.07390
C1335       C  0.81323658  0.08075489  0.02813891    -0.02400
C1336       C  0.84102422  0.05772086  0.03028332    -0.02410
C1337       C  0.86560701  0.05748341  0.66281978     0.07520
C1338       C  0.86246999  0.08340447  0.63176504    -0.02600
Br1339     Br  0.88136448  0.08090051  0.57300773    -0.01150
Br1340     Br  0.86964457  0.13585035  0.68923657    -0.01220
Br1341     Br  0.84788020  0.03242970  0.08418637    -0.01180
Br1342     Br  0.78037718  0.07266296  0.07395397    -0.01170
C1343       C  0.76135359  0.11943330  0.91650966    -0.02290
C1344       C  0.76889317  0.14481673  0.94732755     0.07390
C1345       C  0.74801939  0.17333756  0.94468677    -0.02400
C1346       C  0.71469375  0.16954813  0.93583657    -0.02410
C1347       C  0.70506895  0.14315400  0.90911377     0.07520
C1348       C  0.72951688  0.11942797  0.89600895    -0.02600
Br1349     Br  0.72006339  0.08652838  0.85129176    -0.01150
Br1350     Br  0.79157341  0.08374301  0.90313978    -0.01220
Br1351     Br  0.68420246  0.20282251  0.95759078    -0.01180
Br1352     Br  0.76450441  0.21480165  0.58914997    -0.01170
C1353       C  0.73116224  0.11930698  0.68464938    -0.02290
C1354       C  0.76133426  0.13660444  0.69463049     0.07390
C1355       C  0.76391620  0.14871292  0.73879463    -0.02400
C1356       C  0.73467337  0.15489749  0.76337821    -0.02410
C1357       C  0.70344835  0.14503825  0.74664919     0.07520
C1358       C  0.70198676  0.12677066  0.70745927    -0.02600
Br1359     Br  0.65974262  0.11206058  0.68421872    -0.01150
Br1360     Br  0.73017392  0.07746245  0.98690578    -0.01220
Br1361     Br  0.73754702  0.17996855  0.81737040    -0.01180
Br1362     Br  0.80653859  0.15533511  0.76708507    -0.01170
C1363       C  0.22107457  0.96477512  0.68497982    -0.02290
C1364       C  0.22259083  0.93730105  0.65474137     0.07390
C1365       C  0.19963029  0.94136337  0.95063367    -0.02400
C1366       C  0.17202121  0.96351666  0.95137368    -0.02410
C1367       C  0.16650166  0.98474964  0.65433558     0.07520
C1368       C  0.19208660  0.98562173  0.68741442    -0.02600
Br1369     Br  0.18852944  0.01483393  0.73768298    -0.01150
Br1370     Br  0.26067038  0.98407964  0.71054043    -0.01220
Br1371     Br  0.14259473  0.96633480  0.89944952    -0.01180
Br1372     Br  0.20616310  0.92123765  0.89323207    -0.01170
C1373       C  0.22599198  0.84384328  0.69698315    -0.02290
C1374       C  0.22322491  0.87172099  0.66507692     0.07390
C1375       C  0.18976964  0.87537378  0.98652541    -0.02400
C1376       C  0.17209016  0.84723719  0.97355955    -0.02410
C1377       C  0.17212138  0.81866334  0.66888063     0.07520
C1378       C  0.19881489  0.82050638  0.70225123    -0.02600
Br1379     Br  0.19797270  0.79734672  0.76013456    -0.01150
Br1380     Br  0.26081820  0.83777772  0.74198517    -0.01220
Br1381     Br  0.15207364  0.85104957  0.91536015    -0.01180
Br1382     Br  0.16929932  0.89775473  0.03628717    -0.01170
C1383       C  0.27481780  0.88366782  0.91553370    -0.02290
C1384       C  0.26824410  0.90839644  0.94773082     0.07390
C1385       C  0.29015926  0.93577157  0.94592792    -0.02400
C1386       C  0.32324987  0.93077246  0.93391822    -0.02410
C1387       C  0.33185098  0.90325569  0.90794923     0.07520
C1388       C  0.30612633  0.88177443  0.89456364    -0.02600
Br1389     Br  0.31304238  0.84903677  0.84843528    -0.01150
Br1390     Br  0.24376323  0.85089625  0.90055862    -0.01220
Br1391     Br  0.35540352  0.96250615  0.95359609    -0.01180
Br1392     Br  0.27391928  0.97996949  0.60169579    -0.01170
C1393       C  0.30543044  0.88135546  0.68412667    -0.02290
C1394       C  0.27589582  0.90090647  0.69409797     0.07390
C1395       C  0.27552000  0.91449992  0.73760997    -0.02400
C1396       C  0.30568714  0.91884900  0.76140727    -0.02410
C1397       C  0.33575624  0.90488829  0.74573983     0.07520
C1398       C  0.33537570  0.88640739  0.70676431    -0.02600
Br1399     Br  0.37635467  0.86732398  0.68432202    -0.01150
Br1400     Br  0.30473095  0.83982220  0.98510779    -0.01220
Br1401     Br  0.30543614  0.94454844  0.81515872    -0.01180
Br1402     Br  0.23456091  0.91927486  0.77024383    -0.01170
C1403       C  0.83976888  0.93663125  0.70905888    -0.02290
C1404       C  0.81323368  0.93509790  0.67634509     0.07390
C1405       C  0.81193361  0.96322313  0.97981870    -0.02400
C1406       C  0.84021636  0.98335584  0.97341234    -0.02410
C1407       C  0.86728156  0.98257071  0.67055925     0.07520
C1408       C  0.86469933  0.96077653  0.70726747    -0.02600
Br1409     Br  0.89442050  0.96425983  0.75812354    -0.01150
Br1410     Br  0.84680446  0.90507878  0.75680940    -0.01220
Br1411     Br  0.84182760  0.00870140  0.91889278    -0.01180
Br1412     Br  0.77227477  0.98211592  0.95328188    -0.01170
C1413       C  0.70257883  0.91480481  0.71142233    -0.02290
C1414       C  0.70334876  0.89667038  0.75153024     0.07390
C1415       C  0.73416604  0.89256564  0.77379504    -0.02400
C1416       C  0.76308642  0.90643638  0.75532512    -0.02410
C1417       C  0.76260282  0.91197792  0.70958111     0.07520
C1418       C  0.73229284  0.92840500  0.69619955    -0.02600
Br1419     Br  0.72869526  0.97523056  0.03976717    -0.01150
Br1420     Br  0.66106387  0.92812015  0.68388092    -0.01220
Br1421     Br  0.78007678  0.94293383  0.78816575    -0.01180
Br1422     Br  0.73707485  0.86786678  0.82854561    -0.01170
C1423       C  0.74233360  0.86689861  0.97388665    -0.02290
C1424       C  0.76717205  0.89199398  0.96730097     0.07390
C1425       C  0.76178694  0.91163711  0.92908492    -0.02400
C1426       C  0.72948354  0.91644559  0.91105324    -0.02410
C1427       C  0.70395596  0.89422568  0.92158917     0.07520
C1428       C  0.71104305  0.86876551  0.95221815    -0.02600
Br1429     Br  0.67595168  0.83862294  0.96888334    -0.01150
Br1430     Br  0.74766278  0.82954775  0.67959034    -0.01620
Br1431     Br  0.72164834  0.95186273  0.86866912    -0.01180
Br1432     Br  0.79798842  0.91925303  0.89002799    -0.01170
C1433       C  0.95149785  0.22664793  0.98231058    -0.02290
C1434       C  0.92347551  0.22431771  0.01169808     0.07390
C1435       C  0.92726534  0.19857228  0.71183850    -0.02400
C1436       C  0.95574858  0.17743215  0.71427023    -0.02410
C1437       C  0.97826367  0.17503909  0.67847620     0.07520
C1438       C  0.97532824  0.20018633  0.97866111    -0.02600
Br1439     Br  0.00062165  0.19699302  0.92466694    -0.01150
Br1440     Br  0.96229023  0.26663270  0.95133089    -0.01220
Br1441     Br  0.96384361  0.15048654  0.76732199    -0.01180
Br1442     Br  0.89650393  0.19280447  0.75991785    -0.01170
C1443       C  0.86123235  0.20275976  0.96582260    -0.02290
C1444       C  0.86010258  0.22577138  0.66885504     0.07390
C1445       C  0.82697929  0.23026030  0.68483738    -0.02400
C1446       C  0.80330382  0.20416477  0.68366313    -0.02410
C1447       C  0.81006171  0.17482148  0.65842842     0.07520
C1448       C  0.83472795  0.18059672  0.95798551    -0.02600
Br1449     Br  0.83282985  0.16008296  0.89929713    -0.01150
Br1450     Br  0.89560008  0.20314175  0.92046939    -0.01220
Br1451     Br  0.75844569  0.21615928  0.70237138    -0.01180
Br1452     Br  0.80783629  0.27383231  0.68767640    -0.01170
C1453       C  0.92551839  0.31539931  0.74798808    -0.02290
C1454       C  0.89572052  0.33005363  0.76315438     0.07390
C1455       C  0.86744027  0.30933619  0.76865477    -0.02400
C1456       C  0.86821462  0.27652584  0.75317002    -0.02410
C1457       C  0.89544036  0.26506185  0.72765505     0.07520
C1458       C  0.92584735  0.28214000  0.73583887    -0.02600
Br1459     Br  0.96821535  0.26002267  0.74377087    -0.01150
Br1460     Br  0.96671056  0.33944596  0.74172713    -0.01220
Br1461     Br  0.83958674  0.24589747  0.78415243    -0.01180
Br1462     Br  0.82687839  0.32369140  0.79807466    -0.01170
C1463       C  0.89006650  0.31433680  0.99398842    -0.02290
C1464       C  0.88834105  0.28048036  0.97961364     0.07390
C1465       C  0.88362035  0.27798798  0.93297673    -0.02400
C1466       C  0.89704939  0.30208777  0.90518283    -0.02410
C1467       C  0.90578479  0.33308588  0.92187180     0.07520
C1468       C  0.90647769  0.33751822  0.96778148    -0.02600
Br1469     Br  0.91767603  0.38023382  0.99191285    -0.01150
Br1470     Br  0.84955673  0.33791399  0.67440738    -0.01220
Br1471     Br  0.91441906  0.28707695  0.85033625    -0.01180
Br1472     Br  0.84092473  0.26564267  0.90967503    -0.01170
C1473       C  0.84380920  0.86906325  0.97702076    -0.02290
C1474       C  0.81746310  0.87087674  0.67613916     0.07390
C1475       C  0.81849258  0.84319899  0.70689638    -0.02400
C1476       C  0.83976636  0.81461205  0.70139372    -0.02410
C1477       C  0.86459580  0.81290887  0.66637551     0.07520
C1478       C  0.86430753  0.84074610  0.97028907    -0.02600
Br1479     Br  0.89302037  0.84188041  0.91796370    -0.01150
Br1480     Br  0.86258504  0.90725755  0.94877107    -0.01220
Br1481     Br  0.83540002  0.78169150  0.74988206    -0.01180
Br1482     Br  0.79646933  0.84397199  0.76367497    -0.01170
C1483       C  0.92747723  0.83856838  0.04081449    -0.02290
C1484       C  0.92761154  0.81390532  0.67225149     0.07390
C1485       C  0.95559413  0.81766526  0.64232813    -0.02400
C1486       C  0.98333848  0.83621278  0.65540917    -0.02410
C1487       C  0.97886451  0.86523098  0.68002827     0.07520
C1488       C  0.95155091  0.86435189  0.04285633    -0.02600
Br1489     Br  0.95072359  0.89454936  0.09226379    -0.01150
Br1490     Br  0.89776660  0.83684586  0.09117040    -0.01220
Br1491     Br  0.01358142  0.80599989  0.68340050    -0.01180
Br1492     Br  0.96248307  0.79943329  0.58338466    -0.01170
C1493       C  0.92008400  0.70725839  0.94199792    -0.02290
C1494       C  0.89520903  0.70287974  0.91033710     0.07390
C1495       C  0.87601340  0.73039543  0.89630115    -0.02400
C1496       C  0.87670381  0.76055720  0.92036446    -0.02410
C1497       C  0.90115932  0.76514838  0.95589662     0.07520
C1498       C  0.92603082  0.73871709  0.95934868    -0.02600
Br1499     Br  0.96675719  0.74047685  0.66013586    -0.01150
Br1500     Br  0.94394453  0.66876184  0.96570206    -0.01220
Br1501     Br  0.83793119  0.78844221  0.90658823    -0.01180
Br1502     Br  0.84735926  0.72601568  0.84442040    -0.01170
C1503       C  0.87219242  0.70225639  0.71420744    -0.02290
C1504       C  0.89456182  0.69687365  0.74902516     0.07390
C1505       C  0.91620995  0.72207765  0.76199315    -0.02400
C1506       C  0.91726648  0.75235778  0.73821774    -0.02410
C1507       C  0.89397813  0.75932527  0.70207400     0.07520
C1508       C  0.86983830  0.73331938  0.69351757    -0.02600
Br1509     Br  0.82912707  0.73905637  0.65885957    -0.01150
Br1510     Br  0.84476862  0.66598808  0.69405739    -0.01220
Br1511     Br  0.95429254  0.77919085  0.75690020    -0.01180
Br1512     Br  0.94504553  0.71496492  0.81372583    -0.01170
loop_ 
_geom_bond_atom_site_label_1 
_geom_bond_atom_site_label_2 
_geom_bond_distance 
_geom_bond_site_symmetry_2 
_ccdc_geom_bond_type 
C1          C489   1.616       .  S
C1          C973   1.622       .  S
C1          C980   1.637       .  S
C1         C1003   1.606       .  S
O2          Ni10   1.899       .  S
O2           C12   1.276       .  A
O3          Ni10   1.923       .  S
O3           C13   1.282       .  A
O4          Ni10   1.912       .  S
O4           C14   1.281       .  A
O5          Ni10   1.904       .  S
O5           C15   1.280       .  A
O6          Ni11   1.916       .  S
O6           C15   1.280       .  A
O7          Ni11   1.934       .  S
O7           C14   1.283       .  A
O8          Ni11   1.938       .  S
O8           C13   1.285       .  A
O9          Ni11   1.911       .  S
O9           C12   1.282       .  A
Ni10        Ni11   2.387       .  S
C12         C496   1.473       .  S
C13          C42   1.486       .  S
C14          C43   1.478       .  S
C15         C486   1.483       .  S
C16         C426   1.628       .  S
C16         C456   1.617       .  S
C16         C940   1.615       .  S
C16         C953   1.589       .  S
O17         Ni25   1.919       .  S
O17          C27   1.280       .  A
O18         Ni25   1.901       .  S
O18          C28   1.273       .  A
O19         Ni25   1.911       .  S
O19          C29   1.282       .  A
O20         Ni25   1.939       .  S
O20          C30   1.288       .  A
O21         Ni26   1.915       .  S
O21          C30   1.278       .  A
O22         Ni26   1.879       .  S
O22          C29   1.268       .  A
O23         Ni26   1.936       .  S
O23          C28   1.288       .  A
O24         Ni26   1.936       .  S
O24          C27   1.286       .  A
Ni25        Ni26   2.384       .  S
C27          C41   1.484       .  S
C28         C459   1.471       .  S
C29         C446   1.483       .  S
C30          C44   1.482       .  S
O31         Ni39   1.925       .  S
O31          C41   1.284       .  A
O32        Ni543   1.927       .  S
O32          C42   1.284       .  A
O33         Ni39   1.914       .  S
O33          C43   1.281       .  A
O34        Ni543   1.920       .  S
O34          C44   1.279       .  A
O35         Ni40   1.936       .  S
O35          C44   1.287       .  A
O36       Ni1048   1.934       .  S
O36          C43   1.284       .  A
O37         Ni40   1.936       .  S
O37          C42   1.284       .  A
O38       Ni1048   1.933       .  S
O38          C41   1.283       .  A
Ni39       O1040   1.927   1_554  S
Ni39       O1042   1.920   1_554  S
Ni39      Ni1048   2.387       .  S
Ni40        O540   1.934       .  S
Ni40        O542   1.933       .  S
Ni40       Ni543   2.387       .  S
C45         C396   1.615       .  S
C45         C409   1.601       .  S
C45         C466   1.654       .  S
C45        C1424   1.602   1_554  S
O46         Ni54   1.919       .  S
O46          C56   1.280       .  A
O47         Ni54   1.927       .  S
O47          C57   1.283       .  A
O48         Ni54   1.918       .  S
O48          C58   1.281       .  A
O49         Ni54   1.905       .  S
O49          C59   1.279       .  A
O50         Ni55   1.923       .  S
O50          C59   1.281       .  A
O51         Ni55   1.943       .  S
O51          C58   1.285       .  A
O52         Ni55   1.939       .  S
O52          C57   1.285       .  A
O53         Ni55   1.918       .  S
O53          C56   1.284       .  A
Ni54        Ni55   2.386       .  S
C56         C419   1.494       .  S
C57          C87   1.489       .  S
C58          C86   1.486       .  S
C59         C406   1.469       .  S
C60         C356   1.645       .  S
C60         C366   1.645       .  S
C60         C386   1.590   1_556  S
C60        C1384   1.590       .  S
O61         Ni69   1.905       .  S
O61          C71   1.278       .  A
O62         Ni69   1.929       .  S
O62          C72   1.282       .  A
O63         Ni69   1.935       .  S
O63          C73   1.284       .  A
O64         Ni69   1.922       .  S
O64          C74   1.285       .  A
O65         Ni70   1.916       .  S
O65          C74   1.278       .  A
O66         Ni70   1.933       .  S
O66          C73   1.284       .  A
O67         Ni70   1.933       .  S
O67          C72   1.285       .  A
O68         Ni70   1.908       .  S
O68          C71   1.280       .  A
Ni69        Ni70   2.386       .  S
C71         C379   1.480       .  S
C72          C85   1.487       .  S
C73          C88   1.490       .  S
C74         C389   1.479       .  S
O75         Ni83   1.940       .  S
O75          C85   1.286       .  A
O76        Ni587   1.941       .  S
O76          C86   1.285       .  A
O77         Ni83   1.942       .  S
O77          C87   1.286       .  A
O78        Ni587   1.942       .  S
O78          C88   1.286       .  A
O79        Ni588   1.927       .  S
O79          C88   1.283       .  A
O80         Ni84   1.926   1_554  S
O80          C87   1.283       .  A
O81        Ni588   1.921       .  S
O81          C86   1.282       .  A
O82         Ni84   1.923   1_554  S
O82          C85   1.281       .  A
Ni83       O1084   1.941   1_554  S
Ni83       O1086   1.942   1_554  S
Ni83        Ni84   2.385   1_554  S
Ni84       O1087   1.927       .  S
Ni84       O1089   1.921       .  S
C89         C326   1.619       .  S
C89         C346   1.573   1_556  S
C89         C439   1.629       .  S
C89        C1344   1.570       .  S
O90         Ni98   1.928       .  S
O90         C100   1.283       .  A
O91         Ni98   1.897       .  S
O91         C101   1.281       .  A
O92         Ni98   1.913       .  S
O92         C102   1.278       .  A
O93         Ni98   1.932       .  S
O93         C103   1.283       .  A
O94         Ni99   1.921       .  S
O94         C103   1.283       .  A
O95         Ni99   1.911       .  S
O95         C102   1.282       .  A
O96         Ni99   1.892       .  S
O96         C101   1.273       .  A
O97         Ni99   1.910       .  S
O97         C100   1.280       .  A
Ni98        Ni99   2.390       .  S
C100        C129   1.473       .  S
C101        C339   1.463       .  S
C102        C349   1.470       .  S
C103        C132   1.482       .  S
C104        C289   1.631       .  S
C104        C299   1.630       .  S
C104        C306   1.598   1_556  S
C104       C1327   1.610       .  S
O105       Ni113   1.927       .  S
O105        C115   1.284       .  A
O106       Ni113   1.910       .  S
O106        C116   1.281       .  A
O107       Ni113   1.902       .  S
O107        C117   1.276       .  A
O108       Ni113   1.918       .  S
O108        C118   1.282       .  A
O109       Ni114   1.920       .  S
O109        C118   1.281       .  A
O110       Ni114   1.905       .  S
O110        C117   1.282       .  A
O111       Ni114   1.905       .  S
O111        C116   1.278       .  A
O112       Ni114   1.929       .  S
O112        C115   1.282       .  A
Ni113      Ni114   2.388       .  S
C115        C131   1.483       .  S
C116        C316   1.477       .  S
C117        C309   1.473       .  S
C118        C130   1.473       .  S
O119       Ni127   1.927   1_554  S
O119        C129   1.282       .  A
O120       Ni631   1.926       .  S
O120        C130   1.283       .  A
O121       Ni127   1.937   1_554  S
O121        C131   1.286       .  A
O122       Ni631   1.937       .  S
O122        C132   1.285       .  A
O123       Ni632   1.919       .  S
O123        C132   1.281       .  A
O124       Ni128   1.920   1_554  S
O124        C131   1.281       .  A
O125       Ni632   1.914       .  S
O125        C130   1.281       .  A
O126       Ni128   1.914   1_554  S
O126        C129   1.281       .  A
Ni127      O1128   1.926       .  S
Ni127      O1130   1.937       .  S
Ni127      Ni128   2.388       .  S
Ni128      O1131   1.919       .  S
Ni128      O1133   1.914       .  S
C133        C256   1.627       .  S
C133        C266   1.613       .  S
C133        C369   1.638       .  S
C133       C1284   1.613   1_554  S
O134       Ni142   1.909       .  S
O134        C144   1.280       .  A
O135       Ni142   1.923       .  S
O135        C145   1.283       .  A
O136       Ni142   1.922       .  S
O136        C146   1.282       .  A
O137       Ni142   1.904       .  S
O137        C147   1.277       .  A
O138       Ni143   1.911       .  S
O138        C147   1.282       .  A
O139       Ni143   1.928       .  S
O139        C146   1.283       .  A
O140       Ni143   1.936       .  S
O140        C145   1.284       .  A
O141       Ni143   1.914       .  S
O141        C144   1.280       .  A
Ni142      Ni143   2.387       .  S
C144        C279   1.484       .  S
C145        C174   1.485       .  S
C146        C175   1.480       .  S
C147        C269   1.476       .  S
C148        C229   1.623       .  S
C148        C249   1.592       .  S
C148        C296   1.642   1_554  S
C148       C1244   1.578   1_554  S
O149       Ni157   1.938       .  S
O149        C159   1.285       .  A
O150       Ni157   1.911       .  S
O150        C160   1.284       .  A
O151       Ni157   1.911       .  S
O151        C161   1.277       .  A
O152       Ni157   1.934       .  S
O152        C162   1.283       .  A
O153       Ni158   1.926       .  S
O153        C162   1.284       .  A
O154       Ni158   1.911       .  S
O154        C161   1.283       .  A
O155       Ni158   1.895       .  S
O155        C160   1.273       .  A
O156       Ni158   1.913       .  S
O156        C159   1.280       .  A
Ni157      Ni158   2.389       .  S
C159        C176   1.480       .  S
C160        C239   1.473       .  S
C161        C246   1.471       .  S
C162        C173   1.485       .  S
O163       Ni675   1.921       .  S
O163        C173   1.281       .  A
O164       Ni171   1.920       .  S
O164        C174   1.282       .  A
O165       Ni675   1.919       .  S
O165        C175   1.282       .  A
O166       Ni171   1.918       .  S
O166        C176   1.282       .  A
O167       Ni172   1.934       .  S
O167        C176   1.283       .  A
O168       Ni676   1.933       .  S
O168        C175   1.284       .  A
O169       Ni172   1.941       .  S
O169        C174   1.286       .  A
O170       Ni676   1.941       .  S
O170        C173   1.286       .  A
Ni171      O1171   1.921   1_554  S
Ni171      O1173   1.919   1_554  S
Ni171      Ni172   2.386       .  S
Ni172      O1176   1.933   1_554  S
Ni172      O1178   1.941   1_554  S
C177        C178   1.406       .  D
C177        C219   1.570   1_545  S
C177        C359   1.546   1_545  S
C178        C206   1.525       .  S
C178        C286   1.563       .  S
C179        C180   1.394   1_655  D
C179        C196   1.581       .  S
C179        C429   1.562       .  S
C180        C209   1.514   1_554  S
C180        C226   1.552       .  S
C181        C182   1.407   1_654  D
C181        C186   1.517       .  S
C181        C479   1.564       .  S
C182        C216   1.565       .  S
C182        C259   1.525   1_556  S
C183        C184   1.393       .  D
C183        C189   1.530   1_545  S
C183        C399   1.535   1_546  S
C184        C199   1.537       .  S
C184        C329   1.541       .  S
C185        C186   1.419       .  A
C185        C190   1.422       .  A
C185       Br192   1.935   1_655  S
C186       C1195   1.412   1_554  A
C187        C188   1.408       .  A
C187        C690   1.412       .  A
C187       Br194   1.933       .  S
C188        C693   1.416       .  A
C188       Br193   1.928       .  S
C189        C190   1.428   1_556  A
C189       C1196   1.416       .  A
C190       Br191   1.930   1_565  S
C195        C196   1.386       .  A
C195        C200   1.399       .  A
C195       Br202   1.922   1_554  S
C196       C1205   1.463   1_554  A
C197        C198   1.441       .  A
C197        C700   1.463       .  A
C197       Br204   1.910   1_655  S
C198        C703   1.431       .  A
C198       Br203   1.908       .  S
C199        C200   1.393   1_556  A
C199       C1206   1.431       .  A
C200       Br201   1.926       .  S
C205        C210   1.413       .  A
C205        C710   1.425       .  A
C205       Br212   1.943       .  S
C206        C207   1.423   1_556  A
C206       C1213   1.425       .  A
C207        C208   1.422       .  A
C207       Br214   1.922       .  S
C208        C209   1.417   1_554  A
C208       Br213   1.927       .  S
C209       C1218   1.416       .  A
C210        C713   1.416       .  A
C210       Br211   1.933       .  S
C215        C220   1.457       .  A
C215        C720   1.432       .  A
C215       Br222   1.921       .  S
C216        C217   1.396   1_556  A
C216       C1223   1.432       .  A
C217        C218   1.398       .  A
C217       Br224   1.910   1_554  S
C218        C219   1.410   1_554  A
C218       Br223   1.910       .  S
C219       C1228   1.455       .  A
C220        C723   1.455       .  A
C220       Br221   1.906   1_565  S
C225        C226   1.402   1_556  A
C225        C230   1.392       .  A
C225       Br232   1.912       .  S
C226       C1235   1.442       .  A
C227        C228   1.466       .  A
C227        C730   1.442       .  A
C227       Br234   1.915       .  S
C228        C733   1.476       .  A
C228       Br233   1.941       .  S
C229        C230   1.392   1_554  A
C229       C1236   1.476       .  A
C230       Br231   1.947   1_556  S
C235        C236   1.427       .  A
C235        C240   1.421       .  A
C235       Br242   1.931       .  S
C236        C652   1.578       .  S
C236        C237   1.426       .  A
C237        C238   1.381       .  A
C237       Br244   1.918       .  S
C238        C239   1.396       .  A
C238       Br243   1.932       .  S
C239        C240   1.426       .  A
C240       Br241   1.934       .  S
C245        C246   1.412       .  A
C245        C250   1.416       .  A
C245       Br252   1.927       .  S
C246        C247   1.391       .  A
C247        C248   1.396       .  A
C247       Br254   1.940       .  S
C248        C249   1.451       .  A
C248       Br253   1.942   1_554  S
C249        C250   1.419       .  A
C250       Br251   1.923       .  S
C255        C260   1.432       .  A
C255        C760   1.468       .  A
C255       Br262   1.956       .  S
C256        C257   1.448       .  A
C256       C1263   1.468   1_554  A
C257        C258   1.422       .  A
C257       Br264   1.933       .  S
C258        C259   1.404       .  A
C258       Br263   1.935       .  S
C259       C1268   1.409   1_554  A
C260        C763   1.409       .  A
C260       Br261   1.938       .  S
C265        C266   1.458       .  A
C265        C270   1.418       .  A
C265       Br272   1.941       .  S
C266        C267   1.463       .  A
C267        C268   1.400       .  A
C267      Br1282   1.938       .  S
C268        C269   1.386       .  A
C268       Br273   1.944       .  S
C269        C270   1.405       .  A
C270       Br271   1.947       .  S
Br274       C771   1.938       .  S
C275        C276   1.454       .  A
C275        C280   1.406       .  A
C275       Br786   1.921       .  S
C276        C637   1.613       .  S
C276        C277   1.440       .  A
C277        C278   1.417       .  A
C277       Br284   1.892       .  S
C278        C279   1.405       .  A
C278       Br283   1.947       .  S
C279        C280   1.394       .  A
C280       Br281   1.941       .  S
Br282      C1283   1.921       .  S
C285        C286   1.392   1_554  A
C285        C290   1.389       .  A
C285       Br292   1.881   1_554  S
C286       C1295   1.423       .  A
C287        C288   1.453       .  A
C287        C790   1.423       .  A
C287       Br294   1.921       .  S
C288        C793   1.480       .  A
C288       Br293   1.960       .  S
C289        C290   1.434   1_556  A
C289       C1296   1.480       .  A
C290       Br291   1.917       .  S
C295        C300   1.424       .  A
C295        C800   1.420       .  A
C295       Br302   1.943       .  S
C296        C297   1.449       .  A
C296       C1303   1.420   1_556  A
C297        C298   1.429       .  A
C297       Br304   1.939       .  S
C298        C299   1.433       .  A
C298       Br303   1.959       .  S
C299       C1308   1.462   1_556  A
C300        C803   1.462       .  A
C300       Br301   1.955       .  S
C305        C306   1.457       .  A
C305        C310   1.394       .  A
C305      Br1320   1.935       .  S
C306        C307   1.449       .  A
C307        C308   1.420       .  A
C307       Br314   1.940       .  S
C308        C309   1.410       .  A
C308       Br313   1.941       .  S
C309        C310   1.386       .  A
C310       Br311   1.946       .  S
Br312       C809   1.935       .  S
C315        C316   1.405       .  A
C315        C320   1.415       .  A
C315       Br322   1.948       .  S
C316        C317   1.390       .  A
C317        C318   1.402       .  A
C317       Br324   1.942       .  S
C318        C319   1.460       .  A
C318       Br323   1.940       .  S
C319        C608   1.610       .  S
C319        C320   1.455       .  A
C320       Br321   1.935       .  S
C325        C326   1.395       .  A
C325        C330   1.399       .  A
C325       Br332   1.920   1_556  S
C326       C1335   1.472   1_556  A
C327        C328   1.448       .  A
C327        C830   1.472       .  A
C327       Br334   1.944       .  S
C328        C833   1.429       .  A
C328       Br333   1.924       .  S
C329        C330   1.403       .  A
C329       C1336   1.429   1_556  A
C330       Br331   1.926       .  S
C335        C336   1.421       .  A
C335        C340   1.418       .  A
C335       Br342   1.923       .  S
C336        C593   1.570       .  S
C336        C337   1.421       .  A
C337        C338   1.377       .  A
C337       Br848   1.931       .  S
C338        C339   1.398       .  A
C338       Br343   1.931       .  S
C339        C340   1.426       .  A
C340       Br341   1.936       .  S
Br344      C1345   1.931       .  S
C345        C346   1.442       .  A
C345        C350   1.395       .  A
C345      Br1360   1.940   1_554  S
C346        C347   1.418       .  A
C347        C348   1.414       .  A
C347       Br354   1.932       .  S
C348        C349   1.414       .  A
C348       Br353   1.920       .  S
C349        C350   1.394       .  A
C350       Br351   1.937       .  S
Br352       C849   1.940       .  S
C355        C356   1.441   1_554  A
C355        C360   1.434       .  A
C355       Br362   1.941       .  S
C356       C1365   1.454       .  A
C357        C358   1.420       .  A
C357        C860   1.454       .  A
C357       Br364   1.927       .  S
C358        C863   1.407       .  A
C358       Br363   1.951       .  S
C359        C360   1.426   1_556  A
C359       C1366   1.407       .  A
C360       Br361   1.927   1_565  S
C365        C366   1.478   1_554  A
C365        C370   1.465       .  A
C365       Br372   1.951       .  S
C366       C1375   1.396       .  A
C367        C368   1.408       .  A
C367        C870   1.396       .  A
C367       Br374   1.934       .  S
C368        C873   1.437       .  A
C368       Br373   1.921       .  S
C369        C370   1.466       .  A
C369       C1376   1.437   1_554  A
C370       Br371   1.968       .  S
C375        C376   1.419       .  A
C375        C380   1.415       .  A
C375       Br382   1.891       .  S
C376        C564   1.590       .  S
C376        C377   1.428       .  A
C377        C378   1.396       .  A
C377       Br888   1.926       .  S
C378        C379   1.405       .  A
C378       Br383   1.929       .  S
C379        C380   1.420       .  A
C380       Br381   1.941       .  S
Br384      C1385   1.926       .  S
C385        C386   1.454       .  A
C385        C390   1.398       .  A
C385      Br1400   1.948   1_554  S
C386        C387   1.419       .  A
C387        C388   1.418       .  A
C387       Br394   1.932       .  S
C388        C389   1.414       .  A
C388       Br393   1.924       .  S
C389        C390   1.392       .  A
C390       Br391   1.940       .  S
Br392       C889   1.948       .  S
C395        C396   1.447       .  A
C395        C400   1.413       .  A
C395       Br402   1.930       .  S
C396       C1405   1.445   1_554  A
C397        C398   1.424       .  A
C397        C900   1.445       .  A
C397       Br404   1.926       .  S
C398        C903   1.418       .  A
C398       Br403   1.926   1_565  S
C399        C400   1.412       .  A
C399       C1406   1.418   1_554  A
C400       Br401   1.938       .  S
C405        C406   1.405       .  A
C405        C410   1.403       .  A
C405       Br412   1.928       .  S
C406        C407   1.412       .  A
C407        C408   1.415       .  A
C407       Br414   1.919       .  S
C408        C409   1.388       .  A
C408       Br413   1.913       .  S
C409        C410   1.436       .  A
C410      Br1419   1.928       .  S
Br411       C914   1.928       .  S
C415        C416   1.450       .  A
C415        C420   1.414       .  A
C415       Br926   1.916       .  S
C416        C549   1.602       .  S
C416        C417   1.404       .  A
C417        C418   1.416       .  A
C417       Br424   1.904       .  S
C418        C419   1.412       .  A
C418       Br423   1.931       .  S
C419        C420   1.401       .  A
C420       Br421   1.947       .  S
Br422      C1423   1.916   1_554  S
C425        C426   1.441       .  A
C425        C430   1.434       .  A
C425       Br432   1.919       .  S
C426        C931   1.448       .  A
C427        C428   1.423       .  A
C427       C1434   1.448       .  A
C427       Br434   1.923       .  S
C428        C429   1.413       .  A
C428       Br433   1.946       .  S
C429       C1438   1.422   1_554  A
C430        C933   1.422       .  A
C430       Br431   1.923   1_655  S
C435        C440   1.424       .  A
C435        C940   1.439       .  A
C435       Br442   1.948       .  S
C436       C1024   1.615       .  S
C436        C437   1.431       .  A
C436       C1443   1.439   1_554  A
C437        C438   1.434       .  A
C437       Br444   1.919       .  S
C438        C439   1.437   1_554  A
C438       Br443   1.952       .  S
C439       C1448   1.444       .  A
C440        C943   1.444       .  A
C440       Br441   1.952       .  S
C445        C446   1.411       .  A
C445        C450   1.398       .  A
C445       Br452   1.945       .  S
C446        C447   1.434       .  A
C447        C448   1.411       .  A
C447       Br454   1.946       .  S
C448        C449   1.416       .  A
C448       Br453   1.942       .  S
C449       C1024   1.589       .  S
C449        C450   1.435       .  A
C450       Br451   1.929       .  S
C455        C456   1.443       .  A
C455        C460   1.397       .  A
C455       Br966   1.928       .  S
C456        C457   1.414       .  A
C457        C458   1.397       .  A
C457       Br464   1.925       .  S
C458        C459   1.403       .  A
C458       Br463   1.892       .  S
C459        C460   1.389       .  A
C460       Br461   1.938       .  S
Br462      C1463   1.928   1_554  S
C465        C470   1.421       .  A
C465        C970   1.446       .  A
C465       Br472   1.926       .  S
C466        C467   1.447       .  A
C466       C1473   1.446   1_554  A
C467        C468   1.442       .  A
C467       Br474   1.925       .  S
C468        C469   1.457   1_554  A
C468       Br473   1.977       .  S
C469       C1009   1.622       .  S
C469       C1478   1.427       .  A
C470        C973   1.427       .  A
C470       Br471   1.956       .  S
C475        C480   1.436       .  A
C475        C980   1.458       .  A
C475       Br482   1.935       .  S
C476       C1009   1.637   1_554  S
C476        C477   1.455   1_554  A
C476       C1483   1.458       .  A
C477        C478   1.410       .  A
C477       Br484   1.940       .  S
C478        C479   1.402   1_556  A
C478       Br483   1.902   1_656  S
C479       C1488   1.418       .  A
C480        C983   1.417       .  A
C480       Br481   1.927       .  S
C485        C486   1.389       .  A
C485        C490   1.403       .  A
C485       Br492   1.948       .  S
C486        C487   1.408       .  A
C487        C488   1.423       .  A
C487       Br494   1.940       .  S
C488        C489   1.460       .  A
C488       Br493   1.955       .  S
C489        C490   1.459       .  A
C490       Br995   1.930       .  S
Br491      C1498   1.930       .  S
C495        C496   1.388       .  A
C495        C500   1.401       .  A
C495       Br502   1.947       .  S
C496        C497   1.407       .  A
C497        C498   1.416       .  A
C497       Br504   1.948       .  S
C498        C499   1.451       .  A
C498       Br503   1.939       .  S
C499       C1009   1.606   1_554  S
C499        C500   1.466       .  A
C500       Br501   1.945   1_554  S
C505       C1477   1.622       .  S
C505       C1484   1.637       .  S
C505        C993   1.616       .  S
C505       C1507   1.606       .  S
O506       Ni514   1.899       .  S
O506        C516   1.276       .  A
O507       Ni514   1.923       .  S
O507        C517   1.282       .  A
O508       Ni514   1.912       .  S
O508        C518   1.281       .  A
O509       Ni514   1.904       .  S
O509        C519   1.280       .  A
O510       Ni515   1.916       .  S
O510        C519   1.280       .  A
O511       Ni515   1.934       .  S
O511        C518   1.283       .  A
O512       Ni515   1.938       .  S
O512        C517   1.285       .  A
O513       Ni515   1.911       .  S
O513        C516   1.282       .  A
Ni514      Ni515   2.387       .  S
C516       C1000   1.473       .  S
C517        C546   1.486       .  S
C518        C547   1.478       .  S
C519        C990   1.483       .  S
C520        C930   1.628       .  S
C520       C1444   1.615       .  S
C520       C1457   1.589       .  S
C520        C960   1.617       .  S
O521       Ni529   1.919       .  S
O521        C531   1.280       .  A
O522       Ni529   1.901       .  S
O522        C532   1.273       .  A
O523       Ni529   1.911       .  S
O523        C533   1.282       .  A
O524       Ni529   1.939       .  S
O524        C534   1.288       .  A
O525       Ni530   1.915       .  S
O525        C534   1.278       .  A
O526       Ni530   1.879       .  S
O526        C533   1.268       .  A
O527       Ni530   1.936       .  S
O527        C532   1.288       .  A
O528       Ni530   1.936       .  S
O528        C531   1.286       .  A
Ni529      Ni530   2.384       .  S
C531        C545   1.484       .  S
C532        C963   1.471       .  S
C533        C950   1.483       .  S
C534        C548   1.482       .  S
O535       Ni543   1.925       .  S
O535        C545   1.284       .  A
O536      Ni1047   1.927       .  S
O536        C546   1.284       .  A
O537       Ni543   1.914       .  S
O537        C547   1.281       .  A
O538      Ni1047   1.920       .  S
O538        C548   1.279       .  A
O539       Ni544   1.936       .  S
O539        C548   1.287       .  A
O540        C547   1.284       .  A
O541       Ni544   1.936       .  S
O541        C546   1.284       .  A
O542        C545   1.283       .  A
Ni544      O1044   1.934       .  S
Ni544      O1046   1.933       .  S
Ni544     Ni1047   2.387       .  S
C549        C900   1.615       .  S
C549        C913   1.601       .  S
C549        C970   1.654       .  S
O550       Ni558   1.919       .  S
O550        C560   1.280       .  A
O551       Ni558   1.927       .  S
O551        C561   1.284       .  A
O552       Ni558   1.918       .  S
O552        C562   1.281       .  A
O553       Ni558   1.905       .  S
O553        C563   1.279       .  A
O554       Ni559   1.923       .  S
O554        C563   1.281       .  A
O555       Ni559   1.943       .  S
O555        C562   1.285       .  A
O556       Ni559   1.939       .  S
O556        C561   1.285       .  A
O557       Ni559   1.918       .  S
O557        C560   1.284       .  A
Ni558      Ni559   2.386       .  S
C560        C923   1.494       .  S
C561        C591   1.489       .  S
C562        C590   1.486       .  S
C563        C910   1.469       .  S
C564        C860   1.646       .  S
C564        C870   1.645       .  S
C564        C890   1.590       .  S
O565       Ni573   1.905       .  S
O565        C575   1.278       .  A
O566       Ni573   1.929       .  S
O566        C576   1.282       .  A
O567       Ni573   1.935       .  S
O567        C577   1.284       .  A
O568       Ni573   1.922       .  S
O568        C578   1.285       .  A
O569       Ni574   1.916       .  S
O569        C578   1.278       .  A
O570       Ni574   1.933       .  S
O570        C577   1.284       .  A
O571       Ni574   1.933       .  S
O571        C576   1.285       .  A
O572       Ni574   1.908       .  S
O572        C575   1.280       .  A
Ni573      Ni574   2.386       .  S
C575        C883   1.480       .  S
C576        C589   1.487       .  S
C577        C592   1.490       .  S
C578        C893   1.479       .  S
O579       Ni587   1.940       .  S
O579        C589   1.286       .  A
O580      Ni1091   1.941       .  S
O580        C590   1.285       .  A
O581       Ni587   1.942       .  S
O581        C591   1.286       .  A
O582      Ni1091   1.942       .  S
O582        C592   1.286       .  A
O583      Ni1092   1.927       .  S
O583        C592   1.283       .  A
O584       Ni588   1.926       .  S
O584        C591   1.283       .  A
O585      Ni1092   1.921       .  S
O585        C590   1.282       .  A
O586       Ni588   1.923       .  S
O586        C589   1.281       .  A
Ni587      Ni588   2.384       .  S
C593        C830   1.619       .  S
C593        C850   1.573       .  S
C593        C943   1.629       .  S
O594       Ni602   1.928       .  S
O594        C604   1.283       .  A
O595       Ni602   1.897       .  S
O595        C605   1.281       .  A
O596       Ni602   1.913       .  S
O596        C606   1.278       .  A
O597       Ni602   1.932       .  S
O597        C607   1.283       .  A
O598       Ni603   1.921       .  S
O598        C607   1.283       .  A
O599       Ni603   1.911       .  S
O599        C606   1.282       .  A
O600       Ni603   1.892       .  S
O600        C605   1.273       .  A
O601       Ni603   1.910       .  S
O601        C604   1.280       .  A
Ni602      Ni603   2.390       .  S
C604        C633   1.473       .  S
C605        C843   1.463       .  S
C606        C853   1.470       .  S
C607        C636   1.482       .  S
C608        C793   1.631       .  S
C608        C803   1.630       .  S
C608        C810   1.598       .  S
O609       Ni617   1.927       .  S
O609        C619   1.284       .  A
O610       Ni617   1.910       .  S
O610        C620   1.281       .  A
O611       Ni617   1.902       .  S
O611        C621   1.276       .  A
O612       Ni617   1.918       .  S
O612        C622   1.282       .  A
O613       Ni618   1.920       .  S
O613        C622   1.281       .  A
O614       Ni618   1.905       .  S
O614        C621   1.282       .  A
O615       Ni618   1.905       .  S
O615        C620   1.278       .  A
O616       Ni618   1.929       .  S
O616        C619   1.282       .  A
Ni617      Ni618   2.388       .  S
C619        C635   1.483       .  S
C620        C820   1.477       .  S
C621        C813   1.473       .  S
C622        C634   1.473       .  S
O623       Ni631   1.927       .  S
O623        C633   1.282       .  A
O624      Ni1135   1.926       .  S
O624        C634   1.283       .  A
O625       Ni631   1.937       .  S
O625        C635   1.286       .  A
O626      Ni1135   1.937       .  S
O626        C636   1.285       .  A
O627      Ni1136   1.919       .  S
O627        C636   1.281       .  A
O628       Ni632   1.920       .  S
O628        C635   1.281       .  A
O629      Ni1136   1.914       .  S
O629        C634   1.281       .  A
O630       Ni632   1.914       .  S
O630        C633   1.281       .  A
Ni631      Ni632   2.388       .  S
C637        C760   1.627       .  S
C637        C770   1.613       .  S
C637        C873   1.638       .  S
O638       Ni646   1.910       .  S
O638        C648   1.280       .  A
O639       Ni646   1.923       .  S
O639        C649   1.283       .  A
O640       Ni646   1.923       .  S
O640        C650   1.282       .  A
O641       Ni646   1.904       .  S
O641        C651   1.277       .  A
O642       Ni647   1.911       .  S
O642        C651   1.282       .  A
O643       Ni647   1.928       .  S
O643        C650   1.283       .  A
O644       Ni647   1.936       .  S
O644        C649   1.284       .  A
O645       Ni647   1.914       .  S
O645        C648   1.280       .  A
Ni646      Ni647   2.387       .  S
C648        C783   1.484       .  S
C649        C678   1.485       .  S
C650        C679   1.480       .  S
C651        C773   1.476       .  S
C652        C733   1.623       .  S
C652        C753   1.592       .  S
C652        C800   1.642       .  S
O653       Ni661   1.938       .  S
O653        C663   1.285       .  A
O654       Ni661   1.911       .  S
O654        C664   1.284       .  A
O655       Ni661   1.911       .  S
O655        C665   1.277       .  A
O656       Ni661   1.934       .  S
O656        C666   1.283       .  A
O657       Ni662   1.926       .  S
O657        C666   1.284       .  A
O658       Ni662   1.911       .  S
O658        C665   1.283       .  A
O659       Ni662   1.895       .  S
O659        C664   1.273       .  A
O660       Ni662   1.913       .  S
O660        C663   1.280       .  A
Ni661      Ni662   2.389       .  S
C663        C680   1.480       .  S
C664        C743   1.473       .  S
C665        C750   1.471       .  S
C666        C677   1.485       .  S
O667      Ni1179   1.921       .  S
O667        C677   1.281       .  A
O668       Ni675   1.920       .  S
O668        C678   1.282       .  A
O669      Ni1179   1.919       .  S
O669        C679   1.282       .  A
O670       Ni675   1.918       .  S
O670        C680   1.282       .  A
O671       Ni676   1.934       .  S
O671        C680   1.283       .  A
O672      Ni1180   1.933       .  S
O672        C679   1.284       .  A
O673       Ni676   1.941       .  S
O673        C678   1.286       .  A
O674      Ni1180   1.941       .  S
O674        C677   1.286       .  A
Ni675      Ni676   2.386       .  S
C681        C682   1.406       .  D
C681        C723   1.570   1_545  S
C681        C863   1.546   1_545  S
C682        C710   1.525       .  S
C682        C790   1.563       .  S
C683        C684   1.394   1_655  D
C683        C700   1.581       .  S
C683        C933   1.562       .  S
C684        C713   1.514       .  S
C684        C730   1.552       .  S
C685        C686   1.407   1_655  D
C685        C690   1.517       .  S
C685        C983   1.564       .  S
C686        C720   1.565       .  S
C686        C763   1.525       .  S
C687        C688   1.393       .  D
C687        C693   1.530   1_545  S
C687        C903   1.535   1_545  S
C688        C703   1.537       .  S
C688        C833   1.541       .  S
C689        C690   1.419       .  A
C689        C694   1.422       .  A
C689       Br696   1.935   1_655  S
C691       C1194   1.412       .  A
C691        C692   1.408       .  A
C691       Br698   1.933       .  S
C692       C1197   1.416       .  A
C692       Br697   1.928       .  S
C693        C694   1.428       .  A
C694       Br695   1.930   1_565  S
C699        C700   1.386       .  A
C699        C704   1.399       .  A
C699       Br706   1.922       .  S
C701       C1204   1.463       .  A
C701        C702   1.441       .  A
C701       Br708   1.910   1_655  S
C702       C1207   1.431       .  A
C702       Br707   1.908       .  S
C703        C704   1.393       .  A
C704       Br705   1.926       .  S
C709       C1214   1.425       .  A
C709        C714   1.413       .  A
C709       Br716   1.943       .  S
C710        C711   1.423       .  A
C711        C712   1.422       .  A
C711       Br718   1.922       .  S
C712        C713   1.417       .  A
C712       Br717   1.927       .  S
C714       C1217   1.416       .  A
C714       Br715   1.933       .  S
C719       C1224   1.432       .  A
C719        C724   1.457       .  A
C719       Br726   1.921       .  S
C720        C721   1.396       .  A
C721        C722   1.398       .  A
C721       Br728   1.910       .  S
C722        C723   1.410       .  A
C722       Br727   1.910       .  S
C724       C1227   1.455       .  A
C724       Br725   1.906   1_565  S
C729        C730   1.402       .  A
C729        C734   1.392       .  A
C729       Br736   1.912       .  S
C731       C1234   1.442       .  A
C731        C732   1.466       .  A
C731       Br738   1.915       .  S
C732       C1237   1.476       .  A
C732       Br737   1.941       .  S
C733        C734   1.392       .  A
C734       Br735   1.947       .  S
C739        C740   1.427       .  A
C739        C744   1.421       .  A
C739       Br746   1.931       .  S
C740       C1156   1.578       .  S
C740        C741   1.426       .  A
C741        C742   1.381       .  A
C741       Br748   1.918       .  S
C742        C743   1.396       .  A
C742       Br747   1.932       .  S
C743        C744   1.426       .  A
C744       Br745   1.934       .  S
C749        C750   1.412       .  A
C749        C754   1.416       .  A
C749       Br756   1.927       .  S
C750        C751   1.391       .  A
C751        C752   1.396       .  A
C751       Br758   1.940       .  S
C752        C753   1.451       .  A
C752       Br757   1.942       .  S
C753        C754   1.419       .  A
C754       Br755   1.923       .  S
C759       C1264   1.468       .  A
C759        C764   1.432       .  A
C759       Br766   1.956       .  S
C760        C761   1.448       .  A
C761        C762   1.422       .  A
C761       Br768   1.933       .  S
C762        C763   1.404       .  A
C762       Br767   1.936       .  S
C764       C1267   1.409       .  A
C764       Br765   1.938       .  S
C769        C770   1.458       .  A
C769        C774   1.418       .  A
C769       Br776   1.940       .  S
C770        C771   1.463       .  A
C771        C772   1.400       .  A
C772        C773   1.386       .  A
C772       Br777   1.944       .  S
C773        C774   1.405       .  A
C774       Br775   1.947       .  S
Br778      C1275   1.938       .  S
C779        C780   1.454       .  A
C779        C784   1.406       .  A
C779      Br1290   1.921       .  S
C780       C1141   1.613       .  S
C780        C781   1.440       .  A
C781        C782   1.417       .  A
C781       Br788   1.892       .  S
C782        C783   1.405       .  A
C782       Br787   1.947       .  S
C783        C784   1.394       .  A
C784       Br785   1.941       .  S
C789        C790   1.392       .  A
C789        C794   1.389       .  A
C789       Br796   1.881       .  S
C791       C1294   1.423       .  A
C791        C792   1.453       .  A
C791       Br798   1.921       .  S
C792       C1297   1.480       .  A
C792       Br797   1.960       .  S
C793        C794   1.434       .  A
C794       Br795   1.917       .  S
C799       C1304   1.420       .  A
C799        C804   1.424       .  A
C799       Br806   1.943       .  S
C800        C801   1.449       .  A
C801        C802   1.429       .  A
C801       Br808   1.939       .  S
C802        C803   1.433       .  A
C802       Br807   1.959       .  S
C804       C1307   1.462       .  A
C804       Br805   1.955       .  S
C809        C810   1.457       .  A
C809        C814   1.394       .  A
C810        C811   1.449       .  A
C811        C812   1.420       .  A
C811       Br818   1.940       .  S
C812        C813   1.410       .  A
C812       Br817   1.941       .  S
C813        C814   1.386       .  A
C814       Br815   1.946       .  S
Br816      C1313   1.935       .  S
C819        C820   1.405       .  A
C819        C824   1.415       .  A
C819       Br826   1.948       .  S
C820        C821   1.390       .  A
C821        C822   1.402       .  A
C821       Br828   1.942       .  S
C822        C823   1.460       .  A
C822       Br827   1.940       .  S
C823       C1112   1.610       .  S
C823        C824   1.455       .  A
C824       Br825   1.935       .  S
C829        C830   1.395       .  A
C829        C834   1.399       .  A
C829       Br836   1.920       .  S
C831       C1334   1.472       .  A
C831        C832   1.448       .  A
C831       Br838   1.944       .  S
C832       C1337   1.429       .  A
C832       Br837   1.924       .  S
C833        C834   1.403       .  A
C834       Br835   1.926       .  S
C839        C840   1.421       .  A
C839        C844   1.418       .  A
C839       Br846   1.923       .  S
C840       C1097   1.570       .  S
C840        C841   1.421       .  A
C841        C842   1.377       .  A
C841      Br1352   1.931       .  S
C842        C843   1.398       .  A
C842       Br847   1.931       .  S
C843        C844   1.426       .  A
C844       Br845   1.936       .  S
C849        C850   1.442       .  A
C849        C854   1.395       .  A
C850        C851   1.418       .  A
C851        C852   1.414       .  A
C851       Br858   1.932       .  S
C852        C853   1.414       .  A
C852       Br857   1.920       .  S
C853        C854   1.394       .  A
C854       Br855   1.937       .  S
Br856      C1353   1.940       .  S
C859        C860   1.441       .  A
C859        C864   1.434       .  A
C859       Br866   1.941       .  S
C861       C1364   1.454       .  A
C861        C862   1.420       .  A
C861       Br868   1.927       .  S
C862       C1367   1.407       .  A
C862       Br867   1.951       .  S
C863        C864   1.426       .  A
C864       Br865   1.927   1_565  S
C869        C870   1.478       .  A
C869        C874   1.465       .  A
C869       Br876   1.951       .  S
C871       C1374   1.396       .  A
C871        C872   1.408       .  A
C871       Br878   1.934       .  S
C872       C1377   1.437       .  A
C872       Br877   1.921       .  S
C873        C874   1.466       .  A
C874       Br875   1.968       .  S
C879        C880   1.419       .  A
C879        C884   1.415       .  A
C879       Br886   1.891       .  S
C880       C1068   1.590       .  S
C880        C881   1.428       .  A
C881        C882   1.396       .  A
C881      Br1392   1.926       .  S
C882        C883   1.405       .  A
C882       Br887   1.929       .  S
C883        C884   1.420       .  A
C884       Br885   1.941       .  S
C889        C890   1.454       .  A
C889        C894   1.398       .  A
C890        C891   1.419       .  A
C891        C892   1.418       .  A
C891       Br898   1.932       .  S
C892        C893   1.414       .  A
C892       Br897   1.924       .  S
C893        C894   1.392       .  A
C894       Br895   1.940       .  S
Br896      C1393   1.948       .  S
C899        C900   1.447       .  A
C899        C904   1.413       .  A
C899       Br906   1.930       .  S
C901       C1404   1.445       .  A
C901        C902   1.424       .  A
C901       Br908   1.926       .  S
C902       C1407   1.418       .  A
C902       Br907   1.926   1_565  S
C903        C904   1.412       .  A
C904       Br905   1.938       .  S
C909        C910   1.405       .  A
C909        C914   1.403       .  A
C909       Br916   1.928       .  S
C910        C911   1.412       .  A
C911        C912   1.415       .  A
C911       Br918   1.919       .  S
C912        C913   1.388       .  A
C912       Br917   1.913       .  S
C913        C914   1.436       .  A
Br915      C1418   1.928       .  S
C919        C920   1.450       .  A
C919        C924   1.415       .  A
C919      Br1430   1.916       .  S
C920       C1053   1.603       .  S
C920        C921   1.404       .  A
C921        C922   1.416       .  A
C921       Br928   1.904       .  S
C922        C923   1.412       .  A
C922       Br927   1.931       .  S
C923        C924   1.401       .  A
C924       Br925   1.947       .  S
C929        C930   1.441       .  A
C929        C934   1.434       .  A
C929       Br936   1.919       .  S
C930       C1435   1.448       .  A
C931        C932   1.423       .  A
C931       Br938   1.923       .  S
C932        C933   1.413       .  A
C932       Br937   1.946       .  S
C934       C1437   1.422       .  A
C934       Br935   1.923   1_655  S
C939       C1444   1.439       .  A
C939        C944   1.424       .  A
C939       Br946   1.948       .  S
C940        C941   1.431       .  A
C941        C942   1.434       .  A
C941       Br948   1.919       .  S
C942        C943   1.437       .  A
C942       Br947   1.952       .  S
C944       C1447   1.444       .  A
C944       Br945   1.952       .  S
C949        C950   1.411       .  A
C949        C954   1.398       .  A
C949       Br956   1.945       .  S
C950        C951   1.434       .  A
C951        C952   1.411       .  A
C951       Br958   1.946       .  S
C952        C953   1.416       .  A
C952       Br957   1.942       .  S
C953        C954   1.435       .  A
C954       Br955   1.929       .  S
C959        C960   1.443       .  A
C959        C964   1.397       .  A
C959      Br1470   1.928       .  S
C960        C961   1.414       .  A
C961        C962   1.397       .  A
C961       Br968   1.925       .  S
C962        C963   1.403       .  A
C962       Br967   1.892       .  S
C963        C964   1.389       .  A
C964       Br965   1.938       .  S
C969       C1474   1.446       .  A
C969        C974   1.421       .  A
C969       Br976   1.926       .  S
C970        C971   1.447       .  A
C971        C972   1.442       .  A
C971       Br978   1.925       .  S
C972        C973   1.457       .  A
C972       Br977   1.977       .  S
C974       C1477   1.427       .  A
C974       Br975   1.956       .  S
C979       C1484   1.458       .  A
C979        C984   1.436       .  A
C979       Br986   1.935       .  S
C980        C981   1.455       .  A
C981        C982   1.410       .  A
C981       Br988   1.940       .  S
C982        C983   1.402       .  A
C982       Br987   1.902   1_655  S
C984       C1487   1.418       .  A
C984       Br985   1.927       .  S
C989        C990   1.389       .  A
C989        C994   1.403       .  A
C989       Br996   1.948       .  S
C990        C991   1.408       .  A
C991        C992   1.423       .  A
C991       Br998   1.940       .  S
C992        C993   1.460       .  A
C992       Br997   1.955       .  S
C993        C994   1.459       .  A
C994      Br1499   1.930       .  S
C999       C1000   1.388       .  A
C999       C1004   1.401       .  A
C999      Br1006   1.947       .  S
C1000      C1001   1.407       .  A
C1001      C1002   1.416       .  A
C1001     Br1008   1.948       .  S
C1002      C1003   1.451       .  A
C1002     Br1007   1.939       .  S
C1003      C1004   1.466       .  A
C1004     Br1005   1.945       .  S
C1009      C1497   1.616       .  S
O1010     Ni1018   1.899       .  S
O1010      C1020   1.276       .  A
O1011     Ni1018   1.923       .  S
O1011      C1021   1.282       .  A
O1012     Ni1018   1.912       .  S
O1012      C1022   1.281       .  A
O1013     Ni1018   1.904       .  S
O1013      C1023   1.280       .  A
O1014     Ni1019   1.916       .  S
O1014      C1023   1.280       .  A
O1015     Ni1019   1.934       .  S
O1015      C1022   1.283       .  A
O1016     Ni1019   1.938       .  S
O1016      C1021   1.285       .  A
O1017     Ni1019   1.911       .  S
O1017      C1020   1.282       .  A
Ni1018    Ni1019   2.387       .  S
C1020      C1504   1.473       .  S
C1021      C1050   1.486       .  S
C1022      C1051   1.478       .  S
C1023      C1494   1.483       .  S
C1024      C1434   1.628       .  S
C1024      C1464   1.617   1_554  S
O1025     Ni1033   1.919       .  S
O1025      C1035   1.280       .  A
O1026     Ni1033   1.901       .  S
O1026      C1036   1.273       .  A
O1027     Ni1033   1.911       .  S
O1027      C1037   1.282       .  A
O1028     Ni1033   1.939       .  S
O1028      C1038   1.288       .  A
O1029     Ni1034   1.915       .  S
O1029      C1038   1.278       .  A
O1030     Ni1034   1.879       .  S
O1030      C1037   1.268       .  A
O1031     Ni1034   1.936       .  S
O1031      C1036   1.288       .  A
O1032     Ni1034   1.936       .  S
O1032      C1035   1.286       .  A
Ni1033    Ni1034   2.384       .  S
C1035      C1049   1.484       .  S
C1036      C1467   1.471       .  S
C1037      C1454   1.483       .  S
C1038      C1052   1.482       .  S
O1039     Ni1047   1.925       .  S
O1039      C1049   1.284       .  A
O1040      C1050   1.284       .  A
O1041     Ni1047   1.914       .  S
O1041      C1051   1.281       .  A
O1042      C1052   1.279       .  A
O1043     Ni1048   1.936   1_556  S
O1043      C1052   1.287       .  A
O1044      C1051   1.284       .  A
O1045     Ni1048   1.936   1_556  S
O1045      C1050   1.284       .  A
O1046      C1049   1.283       .  A
C1053      C1404   1.615       .  S
C1053      C1417   1.601       .  S
C1053      C1474   1.654       .  S
O1054     Ni1062   1.919       .  S
O1054      C1064   1.280       .  A
O1055     Ni1062   1.927       .  S
O1055      C1065   1.284       .  A
O1056     Ni1062   1.918       .  S
O1056      C1066   1.281       .  A
O1057     Ni1062   1.905       .  S
O1057      C1067   1.279       .  A
O1058     Ni1063   1.923       .  S
O1058      C1067   1.281       .  A
O1059     Ni1063   1.943       .  S
O1059      C1066   1.285       .  A
O1060     Ni1063   1.939       .  S
O1060      C1065   1.285       .  A
O1061     Ni1063   1.918       .  S
O1061      C1064   1.284       .  A
Ni1062    Ni1063   2.386       .  S
C1064      C1427   1.494       .  S
C1065      C1095   1.489       .  S
C1066      C1094   1.486       .  S
C1067      C1414   1.469       .  S
C1068      C1364   1.646       .  S
C1068      C1374   1.645       .  S
C1068      C1394   1.590       .  S
O1069     Ni1077   1.905       .  S
O1069      C1079   1.278       .  A
O1070     Ni1077   1.929       .  S
O1070      C1080   1.282       .  A
O1071     Ni1077   1.935       .  S
O1071      C1081   1.284       .  A
O1072     Ni1077   1.922       .  S
O1072      C1082   1.285       .  A
O1073     Ni1078   1.916       .  S
O1073      C1082   1.278       .  A
O1074     Ni1078   1.933       .  S
O1074      C1081   1.284       .  A
O1075     Ni1078   1.933       .  S
O1075      C1080   1.285       .  A
O1076     Ni1078   1.908       .  S
O1076      C1079   1.280       .  A
Ni1077    Ni1078   2.386       .  S
C1079      C1387   1.480       .  S
C1080      C1093   1.487       .  S
C1081      C1096   1.490       .  S
C1082      C1397   1.479       .  S
O1083     Ni1091   1.940       .  S
O1083      C1093   1.286       .  A
O1084      C1094   1.285       .  A
O1085     Ni1091   1.942       .  S
O1085      C1095   1.286       .  A
O1086      C1096   1.286       .  A
O1087      C1096   1.283       .  A
O1088     Ni1092   1.926       .  S
O1088      C1095   1.283       .  A
O1089      C1094   1.282       .  A
O1090     Ni1092   1.923       .  S
O1090      C1093   1.281       .  A
Ni1091    Ni1092   2.385       .  S
C1097      C1334   1.619       .  S
C1097      C1354   1.573       .  S
C1097      C1447   1.629       .  S
O1098     Ni1106   1.928       .  S
O1098      C1108   1.283       .  A
O1099     Ni1106   1.897       .  S
O1099      C1109   1.281       .  A
O1100     Ni1106   1.913       .  S
O1100      C1110   1.278       .  A
O1101     Ni1106   1.932       .  S
O1101      C1111   1.283       .  A
O1102     Ni1107   1.921       .  S
O1102      C1111   1.283       .  A
O1103     Ni1107   1.911       .  S
O1103      C1110   1.282       .  A
O1104     Ni1107   1.892       .  S
O1104      C1109   1.273       .  A
O1105     Ni1107   1.910       .  S
O1105      C1108   1.280       .  A
Ni1106    Ni1107   2.390       .  S
C1108      C1137   1.473       .  S
C1109      C1347   1.463       .  S
C1110      C1357   1.470       .  S
C1111      C1140   1.482       .  S
C1112      C1297   1.631       .  S
C1112      C1307   1.630       .  S
C1112      C1314   1.598       .  S
O1113     Ni1121   1.927       .  S
O1113      C1123   1.284       .  A
O1114     Ni1121   1.910       .  S
O1114      C1124   1.281       .  A
O1115     Ni1121   1.902       .  S
O1115      C1125   1.276       .  A
O1116     Ni1121   1.918       .  S
O1116      C1126   1.282       .  A
O1117     Ni1122   1.920       .  S
O1117      C1126   1.281       .  A
O1118     Ni1122   1.905       .  S
O1118      C1125   1.282       .  A
O1119     Ni1122   1.905       .  S
O1119      C1124   1.278       .  A
O1120     Ni1122   1.929       .  S
O1120      C1123   1.282       .  A
Ni1121    Ni1122   2.388       .  S
C1123      C1139   1.483       .  S
C1124      C1324   1.477       .  S
C1125      C1317   1.473       .  S
C1126      C1138   1.473       .  S
O1127     Ni1135   1.927       .  S
O1127      C1137   1.282       .  A
O1128      C1138   1.283       .  A
O1129     Ni1135   1.937       .  S
O1129      C1139   1.286       .  A
O1130      C1140   1.285       .  A
O1131      C1140   1.281       .  A
O1132     Ni1136   1.920       .  S
O1132      C1139   1.281       .  A
O1133      C1138   1.281       .  A
O1134     Ni1136   1.914       .  S
O1134      C1137   1.281       .  A
Ni1135    Ni1136   2.388       .  S
C1141      C1264   1.627       .  S
C1141      C1274   1.613       .  S
C1141      C1377   1.638       .  S
O1142     Ni1150   1.910       .  S
O1142      C1152   1.280       .  A
O1143     Ni1150   1.923       .  S
O1143      C1153   1.283       .  A
O1144     Ni1150   1.923       .  S
O1144      C1154   1.282       .  A
O1145     Ni1150   1.904       .  S
O1145      C1155   1.277       .  A
O1146     Ni1151   1.911       .  S
O1146      C1155   1.282       .  A
O1147     Ni1151   1.928       .  S
O1147      C1154   1.283       .  A
O1148     Ni1151   1.936       .  S
O1148      C1153   1.284       .  A
O1149     Ni1151   1.914       .  S
O1149      C1152   1.280       .  A
Ni1150    Ni1151   2.387       .  S
C1152      C1287   1.484       .  S
C1153      C1182   1.485       .  S
C1154      C1183   1.480       .  S
C1155      C1277   1.476       .  S
C1156      C1237   1.623       .  S
C1156      C1257   1.592       .  S
C1156      C1304   1.642       .  S
O1157     Ni1165   1.938       .  S
O1157      C1167   1.285       .  A
O1158     Ni1165   1.911       .  S
O1158      C1168   1.284       .  A
O1159     Ni1165   1.911       .  S
O1159      C1169   1.277       .  A
O1160     Ni1165   1.934       .  S
O1160      C1170   1.283       .  A
O1161     Ni1166   1.926       .  S
O1161      C1170   1.284       .  A
O1162     Ni1166   1.911       .  S
O1162      C1169   1.283       .  A
O1163     Ni1166   1.895       .  S
O1163      C1168   1.273       .  A
O1164     Ni1166   1.913       .  S
O1164      C1167   1.280       .  A
Ni1165    Ni1166   2.389       .  S
C1167      C1184   1.480       .  S
C1168      C1247   1.473       .  S
C1169      C1254   1.471       .  S
C1170      C1181   1.485       .  S
O1171      C1181   1.281       .  A
O1172     Ni1179   1.920       .  S
O1172      C1182   1.282       .  A
O1173      C1183   1.282       .  A
O1174     Ni1179   1.918       .  S
O1174      C1184   1.282       .  A
O1175     Ni1180   1.934       .  S
O1175      C1184   1.283       .  A
O1176      C1183   1.284       .  A
O1177     Ni1180   1.941       .  S
O1177      C1182   1.286       .  A
O1178      C1181   1.286       .  A
Ni1179    Ni1180   2.386       .  S
C1185      C1186   1.406       .  D
C1185      C1227   1.570   1_545  S
C1185      C1367   1.546   1_545  S
C1186      C1214   1.525       .  S
C1186      C1294   1.563       .  S
C1187      C1188   1.394   1_655  D
C1187      C1204   1.581       .  S
C1187      C1437   1.562       .  S
C1188      C1217   1.514       .  S
C1188      C1234   1.552       .  S
C1189      C1190   1.407   1_655  D
C1189      C1194   1.517       .  S
C1189      C1487   1.564       .  S
C1190      C1224   1.565       .  S
C1190      C1267   1.525       .  S
C1191      C1192   1.393       .  D
C1191      C1197   1.530   1_545  S
C1191      C1407   1.535   1_545  S
C1192      C1207   1.537       .  S
C1192      C1337   1.541       .  S
C1193      C1194   1.419       .  A
C1193      C1198   1.422       .  A
C1193     Br1200   1.935   1_655  S
C1195      C1196   1.408       .  A
C1195     Br1202   1.933       .  S
C1196     Br1201   1.928       .  S
C1197      C1198   1.428       .  A
C1198     Br1199   1.930   1_565  S
C1203      C1204   1.386       .  A
C1203      C1208   1.399       .  A
C1203     Br1210   1.922       .  S
C1205      C1206   1.441       .  A
C1205     Br1212   1.910   1_656  S
C1206     Br1211   1.908       .  S
C1207      C1208   1.393       .  A
C1208     Br1209   1.926       .  S
C1213      C1218   1.413       .  A
C1213     Br1220   1.943       .  S
C1214      C1215   1.423       .  A
C1215      C1216   1.422       .  A
C1215     Br1222   1.922       .  S
C1216      C1217   1.417       .  A
C1216     Br1221   1.927       .  S
C1218     Br1219   1.933       .  S
C1223      C1228   1.457       .  A
C1223     Br1230   1.921       .  S
C1224      C1225   1.396       .  A
C1225      C1226   1.398       .  A
C1225     Br1232   1.910       .  S
C1226      C1227   1.410       .  A
C1226     Br1231   1.910       .  S
C1228     Br1229   1.906   1_565  S
C1233      C1234   1.402       .  A
C1233      C1238   1.392       .  A
C1233     Br1240   1.912       .  S
C1235      C1236   1.466       .  A
C1235     Br1242   1.915       .  S
C1236     Br1241   1.941       .  S
C1237      C1238   1.392       .  A
C1238     Br1239   1.947       .  S
C1243      C1244   1.427       .  A
C1243      C1248   1.421       .  A
C1243     Br1250   1.931       .  S
C1244      C1245   1.426       .  A
C1245      C1246   1.381       .  A
C1245     Br1252   1.918       .  S
C1246      C1247   1.396       .  A
C1246     Br1251   1.932       .  S
C1247      C1248   1.426       .  A
C1248     Br1249   1.934       .  S
C1253      C1254   1.412       .  A
C1253      C1258   1.416       .  A
C1253     Br1260   1.927       .  S
C1254      C1255   1.391       .  A
C1255      C1256   1.396       .  A
C1255     Br1262   1.940       .  S
C1256      C1257   1.451       .  A
C1256     Br1261   1.942       .  S
C1257      C1258   1.419       .  A
C1258     Br1259   1.923       .  S
C1263      C1268   1.432       .  A
C1263     Br1270   1.956       .  S
C1264      C1265   1.448       .  A
C1265      C1266   1.422       .  A
C1265     Br1272   1.933       .  S
C1266      C1267   1.404       .  A
C1266     Br1271   1.935       .  S
C1268     Br1269   1.938       .  S
C1273      C1274   1.458       .  A
C1273      C1278   1.418       .  A
C1273     Br1280   1.940       .  S
C1274      C1275   1.463       .  A
C1275      C1276   1.400       .  A
C1276      C1277   1.386       .  A
C1276     Br1281   1.944       .  S
C1277      C1278   1.405       .  A
C1278     Br1279   1.947       .  S
C1283      C1284   1.454       .  A
C1283      C1288   1.406       .  A
C1284      C1285   1.440       .  A
C1285      C1286   1.417       .  A
C1285     Br1292   1.892       .  S
C1286      C1287   1.405       .  A
C1286     Br1291   1.947       .  S
C1287      C1288   1.394       .  A
C1288     Br1289   1.941       .  S
C1293      C1294   1.392       .  A
C1293      C1298   1.389       .  A
C1293     Br1300   1.881       .  S
C1295      C1296   1.453       .  A
C1295     Br1302   1.921       .  S
C1296     Br1301   1.960       .  S
C1297      C1298   1.434       .  A
C1298     Br1299   1.917       .  S
C1303      C1308   1.424       .  A
C1303     Br1310   1.943       .  S
C1304      C1305   1.449       .  A
C1305      C1306   1.429       .  A
C1305     Br1312   1.939       .  S
C1306      C1307   1.433       .  A
C1306     Br1311   1.959       .  S
C1308     Br1309   1.955       .  S
C1313      C1314   1.457       .  A
C1313      C1318   1.394       .  A
C1314      C1315   1.449       .  A
C1315      C1316   1.420       .  A
C1315     Br1322   1.940       .  S
C1316      C1317   1.410       .  A
C1316     Br1321   1.941       .  S
C1317      C1318   1.386       .  A
C1318     Br1319   1.946       .  S
C1323      C1324   1.405       .  A
C1323      C1328   1.415       .  A
C1323     Br1330   1.948       .  S
C1324      C1325   1.390       .  A
C1325      C1326   1.402       .  A
C1325     Br1332   1.942       .  S
C1326      C1327   1.460       .  A
C1326     Br1331   1.940       .  S
C1327      C1328   1.455       .  A
C1328     Br1329   1.935       .  S
C1333      C1334   1.395       .  A
C1333      C1338   1.399       .  A
C1333     Br1340   1.920       .  S
C1335      C1336   1.448       .  A
C1335     Br1342   1.944       .  S
C1336     Br1341   1.924       .  S
C1337      C1338   1.403       .  A
C1338     Br1339   1.926       .  S
C1343      C1344   1.421       .  A
C1343      C1348   1.418       .  A
C1343     Br1350   1.923       .  S
C1344      C1345   1.421       .  A
C1345      C1346   1.377       .  A
C1346      C1347   1.398       .  A
C1346     Br1351   1.931       .  S
C1347      C1348   1.426       .  A
C1348     Br1349   1.936       .  S
C1353      C1354   1.442       .  A
C1353      C1358   1.395       .  A
C1354      C1355   1.418       .  A
C1355      C1356   1.414       .  A
C1355     Br1362   1.932       .  S
C1356      C1357   1.414       .  A
C1356     Br1361   1.920       .  S
C1357      C1358   1.394       .  A
C1358     Br1359   1.937       .  S
C1363      C1364   1.441       .  A
C1363      C1368   1.434       .  A
C1363     Br1370   1.941       .  S
C1365      C1366   1.420       .  A
C1365     Br1372   1.927       .  S
C1366     Br1371   1.951       .  S
C1367      C1368   1.426       .  A
C1368     Br1369   1.927   1_565  S
C1373      C1374   1.478       .  A
C1373      C1378   1.465       .  A
C1373     Br1380   1.951       .  S
C1375      C1376   1.408       .  A
C1375     Br1382   1.934   1_556  S
C1376     Br1381   1.921       .  S
C1377      C1378   1.466       .  A
C1378     Br1379   1.968       .  S
C1383      C1384   1.419       .  A
C1383      C1388   1.415       .  A
C1383     Br1390   1.891       .  S
C1384      C1385   1.428       .  A
C1385      C1386   1.396       .  A
C1386      C1387   1.405       .  A
C1386     Br1391   1.929       .  S
C1387      C1388   1.420       .  A
C1388     Br1389   1.941       .  S
C1393      C1394   1.454       .  A
C1393      C1398   1.398       .  A
C1394      C1395   1.419       .  A
C1395      C1396   1.418       .  A
C1395     Br1402   1.932       .  S
C1396      C1397   1.414       .  A
C1396     Br1401   1.924       .  S
C1397      C1398   1.392       .  A
C1398     Br1399   1.940       .  S
C1403      C1404   1.447       .  A
C1403      C1408   1.413       .  A
C1403     Br1410   1.930       .  S
C1405      C1406   1.424       .  A
C1405     Br1412   1.926       .  S
C1406     Br1411   1.926   1_565  S
C1407      C1408   1.412       .  A
C1408     Br1409   1.938       .  S
C1413      C1414   1.405       .  A
C1413      C1418   1.403       .  A
C1413     Br1420   1.928       .  S
C1414      C1415   1.412       .  A
C1415      C1416   1.415       .  A
C1415     Br1422   1.919       .  S
C1416      C1417   1.388       .  A
C1416     Br1421   1.913       .  S
C1417      C1418   1.436       .  A
C1423      C1424   1.450       .  A
C1423      C1428   1.414       .  A
C1424      C1425   1.404       .  A
C1425      C1426   1.416       .  A
C1425     Br1432   1.904       .  S
C1426      C1427   1.412       .  A
C1426     Br1431   1.931       .  S
C1427      C1428   1.401       .  A
C1428     Br1429   1.947       .  S
C1433      C1434   1.441   1_556  A
C1433      C1438   1.434       .  A
C1433     Br1440   1.919       .  S
C1435      C1436   1.423       .  A
C1435     Br1442   1.923       .  S
C1436      C1437   1.413       .  A
C1436     Br1441   1.946       .  S
C1438     Br1439   1.923   1_655  S
C1443      C1448   1.424       .  A
C1443     Br1450   1.948       .  S
C1444      C1445   1.431       .  A
C1445      C1446   1.434       .  A
C1445     Br1452   1.919       .  S
C1446      C1447   1.437       .  A
C1446     Br1451   1.952       .  S
C1448     Br1449   1.952       .  S
C1453      C1454   1.411       .  A
C1453      C1458   1.398       .  A
C1453     Br1460   1.945       .  S
C1454      C1455   1.434       .  A
C1455      C1456   1.411       .  A
C1455     Br1462   1.946       .  S
C1456      C1457   1.416       .  A
C1456     Br1461   1.942       .  S
C1457      C1458   1.435       .  A
C1458     Br1459   1.929       .  S
C1463      C1464   1.443       .  A
C1463      C1468   1.397       .  A
C1464      C1465   1.414       .  A
C1465      C1466   1.397       .  A
C1465     Br1472   1.925       .  S
C1466      C1467   1.403       .  A
C1466     Br1471   1.892       .  S
C1467      C1468   1.389       .  A
C1468     Br1469   1.938       .  S
C1473      C1478   1.421       .  A
C1473     Br1480   1.926       .  S
C1474      C1475   1.447       .  A
C1475      C1476   1.442       .  A
C1475     Br1482   1.925       .  S
C1476      C1477   1.457       .  A
C1476     Br1481   1.977       .  S
C1478     Br1479   1.956       .  S
C1483      C1488   1.436       .  A
C1483     Br1490   1.935       .  S
C1484      C1485   1.455       .  A
C1485      C1486   1.410       .  A
C1485     Br1492   1.940       .  S
C1486      C1487   1.402       .  A
C1486     Br1491   1.902   1_655  S
C1488     Br1489   1.927       .  S
C1493      C1494   1.389       .  A
C1493      C1498   1.403       .  A
C1493     Br1500   1.948       .  S
C1494      C1495   1.408       .  A
C1495      C1496   1.423       .  A
C1495     Br1502   1.940       .  S
C1496      C1497   1.460       .  A
C1496     Br1501   1.955       .  S
C1497      C1498   1.459       .  A
C1503      C1504   1.388       .  A
C1503      C1508   1.401       .  A
C1503     Br1510   1.947       .  S
C1504      C1505   1.407       .  A
C1505      C1506   1.416       .  A
C1505     Br1512   1.948       .  S
C1506      C1507   1.451       .  A
C1506     Br1511   1.939       .  S
C1507      C1508   1.466       .  A
C1508     Br1509   1.945       .  S
