geometry optimzed in LAMMPS
_audit_creation_date              2020-12-01 
_audit_creation_method            'lammps2cif' 
_symmetry_space_group_name_H-M    'P1' 
_symmetry_Int_Tables_number       1 
_symmetry_cell_setting            triclinic 
loop_ 
_symmetry_equiv_pos_as_xyz 
  x,y,z 
_cell_length_a                    40.53921087 
_cell_length_b                    38.26140696590631 
_cell_length_c                    70.13515328184583 
_cell_angle_alpha                 90.55033810509016 
_cell_angle_beta                  89.87090673226218 
_cell_angle_gamma                 90.15758520227193 
loop_ 
_atom_site_label 
_atom_site_type_symbol 
_atom_site_fract_x 
_atom_site_fract_y 
_atom_site_fract_z 
_atom_site_charge 
N1          N  0.44317315  0.49734713  0.50276855    -0.36600
N2          N  0.99363864  0.47601143  0.47792808    -0.57100
N3          N  0.04326812  0.98053060  0.50673988    -0.36600
N4          N  0.99189347  0.98092587  0.53600951    -0.57100
C5          C  0.42472676  0.48698527  0.48769955     0.27000
C6          C  0.42371367  0.00490779  0.51498256     0.27000
C7          C  0.06268241  0.47281606  0.49163821     0.27000
C8          C  0.06151206  0.97636943  0.52269142     0.27000
C9          C  0.46643997  0.49678767  0.46219318     0.35600
C10         C  0.02009908  0.47747815  0.46621283     0.35600
C11         C  0.46604718  0.01490706  0.54022921     0.35600
C12         C  0.01817179  0.98917551  0.54701744     0.35600
C13         C  0.39390840  0.47623090  0.49411067    -0.21900
C14         C  0.39244612  0.99414114  0.50951234    -0.21900
C15         C  0.09362293  0.46268601  0.49791623    -0.21900
C16         C  0.09321396  0.96637079  0.51764364    -0.21900
C17         C  0.47578793  0.50479945  0.44371704    -0.22900
C18         C  0.00986074  0.48016456  0.44744026    -0.22900
C19         C  0.47561099  0.02279670  0.55871312    -0.22900
C20         C  0.00769850  0.00241409  0.56448128    -0.22900
C21         C  0.43394953  0.48978744  0.46826262    -0.18300
C22         C  0.43288219  0.01337473  0.53397024    -0.18300
C23         C  0.05154306  0.98570645  0.54140224    -0.18300
C24         C  0.05325990  0.47458861  0.47219943    -0.18300
H25         H  0.37333022  0.46710004  0.48559572     0.14600
H26         H  0.37118228  0.99000738  0.51856758     0.14600
H27         H  0.11405905  0.45333603  0.48933847     0.14600
H28         H  0.11386120  0.96193024  0.52705104     0.14600
H29         H  0.45983611  0.50864950  0.43156648     0.12900
H30         H  0.02516948  0.48148718  0.43480757     0.12900
H31         H  0.45988405  0.02926175  0.57072199     0.12900
H32         H  0.02284534  0.01105816  0.57631757     0.12900
H33         H  0.46553681  0.51084032  0.50212276     0.26200
H34         H  0.02031836  0.99246350  0.50617679     0.26200
N35         N  0.04155689  0.24836737  0.50367236    -0.36600
N36         N  0.49106934  0.22107421  0.52793909    -0.57100
N37         N  0.44230381  0.23422264  0.49807814    -0.36600
N38         N  0.49341190  0.24523698  0.47070618    -0.57100
C39         C  0.06004870  0.23410357  0.51762159     0.27000
C40         C  0.05985195  0.24788511  0.48755210     0.27000
C41         C  0.42375967  0.23635271  0.51406382     0.27000
C42         C  0.42467352  0.24887771  0.48387687     0.27000
C43         C  0.01838255  0.23625616  0.54347199     0.35600
C44         C  0.46342144  0.21064153  0.53695272     0.35600
C45         C  0.01854604  0.27299867  0.46555778     0.35600
C46         C  0.46749539  0.24629784  0.45863748     0.35600
C47         C  0.09044197  0.22427938  0.51024773    -0.21900
C48         C  0.09033087  0.23301415  0.49126187    -0.21900
C49         C  0.39392494  0.25223812  0.50999686    -0.21900
C50         C  0.39446850  0.26010839  0.49095194    -0.21900
C51         C  0.00846050  0.23766044  0.56238870    -0.22900
C52         C  0.47137089  0.19119353  0.55288018    -0.22900
C53         C  0.00892081  0.29447836  0.45077198    -0.22900
C54         C  0.47853902  0.24676757  0.43994448    -0.22900
C55         C  0.05103095  0.23216533  0.53708224    -0.18300
C56         C  0.05136974  0.26475355  0.47038113    -0.18300
C57         C  0.43446349  0.25095194  0.46453876    -0.18300
C58         C  0.43134677  0.22055410  0.53160097    -0.18300
H59         H  0.11088476  0.21284004  0.51785701     0.14600
H60         H  0.11074246  0.22980803  0.48142706     0.14600
H61         H  0.37351219  0.25687764  0.51965980     0.14600
H62         H  0.37456672  0.27221420  0.48318885     0.14600
H63         H  0.02401000  0.23796778  0.57491426     0.12900
H64         H  0.45452692  0.17970900  0.56306390     0.12900
H65         H  0.02468507  0.30853511  0.44099378     0.12900
H66         H  0.46373631  0.24852281  0.42716750     0.12900
H67         H  0.01975004  0.26219456  0.50559190     0.26200
H68         H  0.46373258  0.21960328  0.49654812     0.26200
C69         C  0.32292795  0.45031486  0.42332133     0.42500
N70         N  0.28117480  0.43910921  0.40572300     0.01400
C71         C  0.18005379  0.29408236  0.40988318    -0.06500
H72         H  0.31021138  0.26727914  0.39670619     0.06900
C73         C  0.29178681  0.32789519  0.33330971    -0.06900
Co74       Co  0.24619290  0.37546295  0.41924682     0.74200
N75         N  0.27947470  0.31177947  0.40364202    -0.26000
Co76       Co  0.24096420  0.31220169  0.38372935     0.74100
C77         C  0.30429347  0.29317225  0.33795681     0.42600
N78         N  0.27473731  0.41650463  0.34931482     0.01000
N79         N  0.27419257  0.31246788  0.36106669     0.01100
N80         N  0.18582045  0.33592355  0.43250430    -0.46900
H81         H  0.31417669  0.40189071  0.44170615     0.06800
N82         N  0.28150052  0.33620740  0.41698501     0.01400
N83         N  0.20336185  0.31341872  0.36354392     0.01100
C84         C  0.16883150  0.29401466  0.34259865     0.42700
N85         N  0.27684372  0.44003240  0.36316639    -0.25500
C86         C  0.18767329  0.41964645  0.43405479    -0.06400
N87         N  0.30544961  0.46207386  0.40829681    -0.46600
N88         N  0.18435700  0.28641186  0.35905279    -0.46800
C89         C  0.16918176  0.44970103  0.42761749     0.42500
N90         N  0.20950168  0.33779948  0.41963357     0.01400
N91         N  0.20558734  0.44154994  0.36520743    -0.25500
N92         N  0.28214972  0.41345763  0.41814281    -0.26000
N93         N  0.20366022  0.41752644  0.35161615     0.01000
H94         H  0.18649835  0.49378070  0.36735413     0.06900
H95         H  0.17817938  0.34132966  0.32344078     0.06900
N96         N  0.20689607  0.31368580  0.40618191    -0.26100
N97         N  0.27332879  0.33759457  0.34830236    -0.25700
N98         N  0.20865537  0.43942772  0.40794371     0.01400
C99         C  0.32388318  0.30387752  0.42183831     0.42800
C100        C  0.29787615  0.46519510  0.35782693    -0.06900
N101        N  0.20203164  0.33848984  0.35075394    -0.25700
H102        H  0.29213083  0.34095390  0.31969975     0.06900
N103        N  0.30752713  0.33243001  0.42813482    -0.46900
H104        H  0.30085272  0.49008251  0.36507606     0.06900
C105        C  0.17146971  0.45863614  0.34214897     0.42600
C106        C  0.30774723  0.41821050  0.42977744    -0.06400
Co107      Co  0.24303997  0.44075668  0.38557077     0.73800
N108        N  0.29270063  0.42507646  0.33427042    -0.46600
C109        C  0.16611309  0.30905159  0.42750920     0.42900
N110        N  0.18346853  0.46086072  0.41128439    -0.46600
Co111      Co  0.23838561  0.37752513  0.34980810     0.73900
C112        C  0.18055714  0.32877296  0.33711984    -0.06900
C113        C  0.30507449  0.28978393  0.40566507    -0.06500
N114        N  0.21109645  0.41481940  0.42091115    -0.26000
N115        N  0.29207436  0.28542426  0.35534640    -0.46800
H116        H  0.17139174  0.27238495  0.40124776     0.06900
C117        C  0.18607294  0.46832656  0.36051171    -0.06900
Cl118      Cl  0.24213640  0.37651946  0.38453668    -0.49900
C119        C  0.30830025  0.45543957  0.33854648     0.42600
H120        H  0.18374796  0.40371248  0.44646772     0.06800
N121        N  0.18395369  0.42695850  0.33755192    -0.46600
C122        C  0.31690296  0.05002096  0.57802470     0.42500
N123        N  0.27604542  0.05827863  0.59728864     0.01400
C124        C  0.17924692  0.20749098  0.59989219    -0.06500
H125        H  0.31194650  0.22546458  0.60432335     0.06900
C126        C  0.30432176  0.16848872  0.66775209    -0.06900
Co127      Co  0.23805341  0.12207073  0.58617230     0.74200
N128        N  0.27690562  0.18418482  0.59910785    -0.26000
Co129      Co  0.24329436  0.18545438  0.62156404     0.74100
C130        C  0.31679516  0.20284777  0.66209564     0.42600
N131        N  0.28050693  0.08022368  0.65382964     0.01000
N132        N  0.28117438  0.18414778  0.64154171     0.01100
N133        N  0.17676107  0.16464133  0.57746872    -0.46900
H134        H  0.30193971  0.09675300  0.55972357     0.06800
N135        N  0.27421016  0.16025338  0.58558748     0.01400
N136        N  0.21006868  0.18532730  0.64410114     0.01100
C137        C  0.17879920  0.20433087  0.66679248     0.42700
N138        N  0.27885082  0.05621399  0.64019522    -0.25500
C139        C  0.17601324  0.07961514  0.57606914    -0.06400
N140        N  0.30196100  0.03768080  0.59399142    -0.46600
N141        N  0.19141378  0.21197617  0.64948526    -0.46800
C142        C  0.15928007  0.04865841  0.58320842     0.42500
N143        N  0.20274397  0.16097636  0.58858864     0.01400
N144        N  0.20784768  0.05773588  0.64256635    -0.25500
N145        N  0.27357474  0.08327399  0.58454240    -0.26000
N146        N  0.20952862  0.08230865  0.65588468     0.01000
H147        H  0.18515580  0.00688536  0.64217850     0.06900
H148        H  0.19050193  0.15625942  0.68506609     0.06900
N149        N  0.20481721  0.18553908  0.60185242    -0.26100
N150        N  0.28238137  0.15916300  0.65434442    -0.25700
N151        N  0.20280806  0.05847544  0.59993565     0.01400
C152        C  0.31667494  0.19015860  0.57737537     0.42800
C153        C  0.29762503  0.02902815  0.64516875    -0.06900
N154        N  0.21092595  0.16035444  0.65689110    -0.25700
H155        H  0.30671919  0.15599435  0.68144733     0.06900
N156        N  0.29723771  0.16298983  0.57240499    -0.46900
H157        H  0.29706348  0.00361934  0.63827808     0.06900
C158        C  0.17727803  0.04360980  0.66787281     0.42600
C159        C  0.29784438  0.07990758  0.57179135    -0.06400
Co160      Co  0.24142507  0.05679352  0.61988649     0.73800
N161        N  0.29924933  0.07033430  0.66824051    -0.46600
C162        C  0.16076071  0.19340971  0.58366155     0.42900
N163        N  0.17757731  0.03644934  0.59787662    -0.46600
Co164      Co  0.24592434  0.12053960  0.65540380     0.73900
C165        C  0.19158785  0.16968228  0.67157553    -0.06900
C166        C  0.30320324  0.20441051  0.59528401    -0.06500
N167        N  0.20213880  0.08383523  0.58736705    -0.26000
N168        N  0.30096381  0.21064835  0.64575714    -0.46800
H169        H  0.17391351  0.22964280  0.60905670     0.06900
C170        C  0.18755118  0.03248289  0.64871794    -0.06900
Cl171      Cl  0.24224894  0.12115159  0.62079879    -0.49900
C172        C  0.31104367  0.03826060  0.66388765     0.42600
H173        H  0.17063124  0.09540829  0.56377510     0.06800
N174        N  0.19163123  0.07489762  0.67107232    -0.46600
N175        N  0.29434455  0.49534875  0.00323422    -0.36600
N176        N  0.24437784  0.48729761  0.03272889    -0.57100
N177        N  0.19386065  0.49132958  0.00381243    -0.36600
N178        N  0.24214144  0.01844286  0.97895628    -0.57100
C179        C  0.31350499  0.48607517  0.01817762     0.27000
C180        C  0.31113392  0.02054140  0.99377375     0.27000
C181        C  0.17576497  0.47946681  0.01869438     0.27000
C182        C  0.17263931  0.01348914  0.99309873     0.27000
C183        C  0.27114386  0.48934189  0.04408023     0.35600
C184        C  0.21777112  0.48692062  0.04433395     0.35600
C185        C  0.26916961  0.02112217  0.96767233     0.35600
C186        C  0.21532697  0.01940056  0.96745253     0.35600
C187        C  0.34501778  0.47845026  0.01164242    -0.21900
C188        C  0.34499052  0.48344875  0.99229754    -0.21900
C189        C  0.14521535  0.46813885  0.01213029    -0.21900
C190        C  0.14070373  0.01726644  0.99999748    -0.21900
C191        C  0.26150465  0.49073054  0.06305080    -0.22900
C192        C  0.22763259  0.48906687  0.06321338    -0.22900
C193        C  0.25944358  0.02399923  0.94880940    -0.22900
C194        C  0.22539008  0.02313163  0.94868820    -0.22900
C195        C  0.30399598  0.48551858  0.03768095    -0.18300
C196        C  0.30226947  0.02346936  0.97433650    -0.18300
C197        C  0.18196591  0.01907704  0.97382112    -0.18300
C198        C  0.18527733  0.48005242  0.03816552    -0.18300
H199        H  0.36617007  0.47070442  0.01996972     0.14600
H200        H  0.36179195  0.04290941  0.99377369     0.14600
H201        H  0.12487778  0.45794504  0.02042491     0.14600
H202        H  0.11886616  0.02467079  0.99218663     0.14600
H203        H  0.27728843  0.49140209  0.07547641     0.12900
H204        H  0.21213920  0.48823586  0.07578809     0.12900
H205        H  0.27520631  0.02709593  0.93646366     0.12900
H206        H  0.20982311  0.02526265  0.93623967     0.12900
H207        H  0.27098234  0.50610160  0.00405001     0.26200
H208        H  0.21571028  0.50537981  0.00463646     0.26200
N209        N  0.19003028  0.26595934  0.00234236    -0.36600
N210        N  0.24036647  0.26773471  0.03131581    -0.57100
N211        N  0.28888843  0.26466891  0.00158669    -0.36600
N212        N  0.23828046  0.26441974  0.97174886    -0.57100
C213        C  0.17236604  0.27577681  0.01785921     0.27000
C214        C  0.17131121  0.27252833  0.98687087     0.27000
C215        C  0.30773893  0.27425357  0.01667758     0.27000
C216        C  0.30657661  0.27109317  0.98564418     0.27000
C217        C  0.21390340  0.26237523  0.04256166     0.35600
C218        C  0.26717865  0.26198343  0.04214888     0.35600
C219        C  0.21106849  0.25346741  0.96218169     0.35600
C220        C  0.26481223  0.25290730  0.96177392     0.35600
C221        C  0.14230777  0.28938979  0.01215443    -0.21900
C222        C  0.14161387  0.28723027  0.99257323    -0.21900
C223        C  0.33757377  0.28748423  0.01021283    -0.21900
C224        C  0.33694867  0.28518968  0.99061168    -0.21900
C225        C  0.22384155  0.25308650  0.06071120    -0.22900
C226        C  0.25779518  0.25288517  0.06045408    -0.22900
C227        C  0.22035411  0.23546307  0.94580313    -0.22900
C228        C  0.25445085  0.23529952  0.94547974    -0.22900
C229        C  0.18126646  0.26919581  0.03697373    -0.18300
C230        C  0.17821107  0.26011806  0.96825846    -0.18300
C231        C  0.29808396  0.25876354  0.96726504    -0.18300
C232        C  0.29969081  0.26853838  0.03605462    -0.18300
H233        H  0.12238993  0.29856346  0.02118926     0.14600
H234        H  0.12103554  0.29420868  0.98357941     0.14600
H235        H  0.35811014  0.29670042  0.01873852     0.14600
H236        H  0.35700527  0.29199896  0.98113229     0.14600
H237        H  0.20828971  0.24784149  0.07292305     0.12900
H238        H  0.27373279  0.24747197  0.07242200     0.12900
H239        H  0.20427707  0.22347826  0.93530484     0.12900
H240        H  0.26983068  0.22318312  0.93466828     0.12900
H241        H  0.21110297  0.25054537  0.00241546     0.26200
H242        H  0.26751501  0.24962506  0.00210599     0.26200
C243        C  0.41238720  0.06308622  0.92573394     0.42500
N244        N  0.43114566  0.09243618  0.90207979     0.01400
C245        C  0.07912126  0.08510965  0.84808845    -0.06500
H246        H  0.10160585  0.11542970  0.91662437     0.06900
C247        C  0.03459494  0.22236210  0.91656626    -0.06900
Co248      Co  0.49474595  0.06866633  0.88520225     0.74200
N249        N  0.05641151  0.10012398  0.90318202    -0.26000
Co250      Co  0.05460424  0.13625368  0.88156477     0.74100
C251        C  0.06725780  0.21190025  0.92365406     0.42600
N252        N  0.44632512  0.19394456  0.90216451     0.01000
N253        N  0.05147752  0.17556173  0.90212116     0.01100
N254        N  0.04251247  0.04140381  0.85223246    -0.46900
H255        H  0.45869246  0.02715260  0.92507301     0.06800
N256        N  0.03592338  0.07350515  0.90523598     0.01400
N257        N  0.05156503  0.17537442  0.86076869     0.01100
C258        C  0.06218044  0.21550084  0.84032834     0.42700
N259        N  0.42573014  0.16734142  0.90034185    -0.25500
C260        C  0.45739392  0.03743329  0.85091622    -0.06400
N261        N  0.40606975  0.08929924  0.91382472    -0.46600
N262        N  0.07385935  0.18538050  0.84791697    -0.46800
C263        C  0.42839584  0.04583353  0.83984639     0.42500
N264        N  0.03647124  0.06780226  0.86389555     0.01400
N265        N  0.43030536  0.16594758  0.85902604    -0.25500
N266        N  0.45518695  0.07003851  0.90524091    -0.26000
N267        N  0.45063251  0.19281749  0.86069286     0.01000
H268        H  0.38945949  0.15568512  0.83987546     0.06900
H269        H  0.01618981  0.24667605  0.84918041     0.06900
N270        N  0.05709787  0.09424607  0.86177841    -0.26100
N271        N  0.02652679  0.19768129  0.90342275    -0.25700
N272        N  0.43577396  0.08588596  0.86101891     0.01400
C273        C  0.07362200  0.06709401  0.92671602     0.42800
C274        C  0.40025118  0.17169587  0.91209856    -0.06900
N275        N  0.02709820  0.19791017  0.86230124    -0.25700
H276        H  0.02085199  0.24598437  0.91953931     0.06900
N277        N  0.04618835  0.05193482  0.91888802    -0.46900
H278        H  0.37862550  0.15511263  0.91266031     0.06900
C279        C  0.42172668  0.20503505  0.83618546     0.42600
C280        C  0.44532620  0.04952840  0.91990796    -0.06400
Co281      Co  0.43040058  0.12778158  0.88025594     0.73800
N282        N  0.43493840  0.21795468  0.91443389    -0.46600
C283        C  0.06902176  0.04963807  0.84166771     0.42900
N284        N  0.41553522  0.07580708  0.84710543    -0.46600
Co285      Co  0.48546879  0.19690612  0.88225519     0.73900
C286        C  0.03147366  0.22362208  0.84998726    -0.06900
C287        C  0.08021590  0.09849633  0.91611095    -0.06500
N288        N  0.45984593  0.06329530  0.86374538    -0.26000
N289        N  0.07580507  0.18296591  0.91396511    -0.46800
H290        H  0.09997303  0.10084694  0.84383074     0.06900
C291        C  0.41020836  0.17178162  0.84409995    -0.06900
Cl292      Cl  0.49022568  0.13271411  0.88226852    -0.49900
C293        C  0.40612038  0.20489997  0.92146995     0.42600
H294        H  0.47302966  0.01460501  0.85010704     0.06800
N295        N  0.44641578  0.21646557  0.84734249    -0.46600
N296        N  0.12219564  0.37907194  0.78308886    -0.36600
N297        N  0.13462512  0.43207987  0.75509434    -0.57100
N298        N  0.14697961  0.37736543  0.72674332    -0.36600
N299        N  0.13708740  0.32429856  0.75528858    -0.57100
C300        C  0.12174009  0.40784231  0.79448951     0.27000
C301        C  0.12220989  0.35070939  0.79443488     0.27000
C302        C  0.15953643  0.40596133  0.71821324     0.27000
C303        C  0.16098968  0.34915722  0.71829207     0.27000
C304        C  0.12115008  0.45236515  0.76888600     0.35600
C305        C  0.13390993  0.45096667  0.73896153     0.35600
C306        C  0.12235207  0.30499857  0.76888166     0.35600
C307        C  0.13697616  0.30446651  0.73925961     0.35600
C308        C  0.12161375  0.39761193  0.81340405    -0.21900
C309        C  0.12184726  0.36152491  0.81336845    -0.21900
C310        C  0.18207073  0.39589967  0.70430706    -0.21900
C311        C  0.18287566  0.35989776  0.70430283    -0.21900
C312        C  0.11222463  0.48448889  0.76153211    -0.22900
C313        C  0.12009921  0.48349944  0.74251088    -0.22900
C314        C  0.11311608  0.27266310  0.76149603    -0.22900
C315        C  0.12236840  0.27236080  0.74267527    -0.22900
C316        C  0.11771293  0.44264835  0.78814902    -0.18300
C317        C  0.11812947  0.31571496  0.78803374    -0.18300
C318        C  0.15240088  0.31415300  0.72208228    -0.18300
C319        C  0.14888578  0.44052047  0.72167005    -0.18300
H320        H  0.12024641  0.41436190  0.82590328     0.14600
H321        H  0.12064347  0.34510894  0.82583529     0.14600
H322        H  0.19590315  0.41274218  0.69487542     0.14600
H323        H  0.19755202  0.34349655  0.69493796     0.14600
H324        H  0.10229751  0.00372727  0.77232440     0.12900
H325        H  0.12032315  0.00329512  0.73619355     0.12900
H326        H  0.10100989  0.25147818  0.76888832     0.12900
H327        H  0.11895202  0.25091790  0.73269079     0.12900
H328        H  0.11769887  0.37858164  0.76856242     0.26200
H329        H  0.12693639  0.37704562  0.73604163     0.26200
N330        N  0.36168383  0.32097963  0.75113936    -0.36600
N331        N  0.34543551  0.37437672  0.72360382    -0.57100
N332        N  0.35963253  0.42778644  0.75239606    -0.36600
N333        N  0.37201185  0.37453516  0.78076209    -0.57100
C334        C  0.35021913  0.30069684  0.73666294     0.27000
C335        C  0.36310764  0.30074478  0.76682545     0.27000
C336        C  0.34546145  0.44750317  0.73875994     0.27000
C337        C  0.36181893  0.44780076  0.76836526     0.27000
C338        C  0.34585733  0.34638508  0.71168964     0.35600
C339        C  0.34371534  0.40297103  0.71249092     0.35600
C340        C  0.38231389  0.34600167  0.79032297     0.35600
C341        C  0.38330483  0.40283811  0.79053975     0.35600
C342        C  0.34465256  0.26709016  0.74318017    -0.21900
C343        C  0.35266169  0.26714478  0.76220220    -0.21900
C344        C  0.33842064  0.48037782  0.74621753    -0.21900
C345        C  0.34897260  0.48063837  0.76484639    -0.21900
C346        C  0.34381785  0.35717518  0.69293320    -0.22900
C347        C  0.34260256  0.39301581  0.69342624    -0.22900
C348        C  0.39949368  0.35626456  0.80651583    -0.22900
C349        C  0.40023938  0.39223037  0.80660759    -0.22900
C350        C  0.34611539  0.31113813  0.71751395    -0.18300
C351        C  0.37618603  0.31080245  0.78477740    -0.18300
C352        C  0.37743288  0.43811738  0.78553587    -0.18300
C353        C  0.34169101  0.43786615  0.71931077    -0.18300
H354        H  0.33602632  0.24470346  0.73504224     0.14600
H355        H  0.35145185  0.24476378  0.77150393     0.14600
H356        H  0.32707340  0.00235361  0.74151322     0.14600
H357        H  0.34415125  0.00323229  0.77786762     0.14600
H358        H  0.34316160  0.34091815  0.68022261     0.12900
H359        H  0.34095497  0.40976299  0.68112141     0.12900
H360        H  0.41065673  0.33957998  0.81706002     0.12900
H361        H  0.41186001  0.40868417  0.81729927     0.12900
H362        H  0.37162058  0.34578260  0.74987448     0.26200
H363        H  0.37127288  0.40402463  0.75022277     0.26200
N364        N  0.12883166  0.12374285  0.28138287    -0.36600
N365        N  0.11617309  0.17757049  0.25373910    -0.57100
N366        N  0.10471222  0.12380823  0.22470285    -0.36600
N367        N  0.11475947  0.06998367  0.25311458    -0.57100
C368        C  0.12704702  0.15236994  0.29282012     0.27000
C369        C  0.12556914  0.09535698  0.29260156     0.27000
C370        C  0.09243846  0.15238398  0.21599410     0.27000
C371        C  0.09249740  0.09537611  0.21547731     0.27000
C372        C  0.13002941  0.19739792  0.26764935     0.35600
C373        C  0.11553875  0.19746401  0.23792570     0.35600
C374        C  0.12676115  0.04973688  0.26718089     0.35600
C375        C  0.11420433  0.04990679  0.23715585     0.35600
C376        C  0.12217653  0.14204579  0.31152537    -0.21900
C377        C  0.12148122  0.10604514  0.31140376    -0.21900
C378        C  0.07245497  0.14201477  0.20093894    -0.21900
C379        C  0.07243856  0.10602981  0.20063198    -0.21900
C380        C  0.13840947  0.22996891  0.26055727    -0.22900
C381        C  0.12883578  0.23013626  0.24177798    -0.22900
C382        C  0.13358789  0.01654173  0.26018174    -0.22900
C383        C  0.12583630  0.01671326  0.24111959    -0.22900
C384        C  0.13278658  0.18722729  0.28694905    -0.18300
C385        C  0.12961626  0.06028966  0.28647904    -0.18300
C386        C  0.10022035  0.06016743  0.21960938    -0.18300
C387        C  0.10045684  0.18747185  0.22059218    -0.18300
H388        H  0.12024605  0.15869805  0.32403705     0.14600
H389        H  0.11896883  0.08963745  0.32380742     0.14600
H390        H  0.05938100  0.15864271  0.19112206     0.14600
H391        H  0.05920616  0.08960988  0.19057425     0.14600
H392        H  0.14976379  0.25159220  0.26814948     0.12900
H393        H  0.13118993  0.25186111  0.23209350     0.12900
H394        H  0.15287152  0.49579292  0.26569882     0.12900
H395        H  0.13199449  0.49572468  0.23003196     0.12900
H396        H  0.13654456  0.12347793  0.26723201     0.26200
H397        H  0.12307619  0.12372740  0.23503473     0.26200
N398        N  0.36583076  0.07210572  0.24924592    -0.36600
N399        N  0.33982289  0.12418141  0.27553023    -0.57100
N400        N  0.36367368  0.17851235  0.25107888    -0.36600
N401        N  0.39193179  0.12641632  0.22517475    -0.57100
C402        C  0.35935192  0.05221497  0.26463907     0.27000
C403        C  0.38564807  0.05328631  0.23752475     0.27000
C404        C  0.35699598  0.19717827  0.26708780     0.27000
C405        C  0.38331137  0.19849039  0.24006997     0.27000
C406        C  0.32558965  0.09531900  0.28277160     0.35600
C407        C  0.32476463  0.15181289  0.28384433     0.35600
C408        C  0.39591168  0.09872813  0.21329108     0.35600
C409        C  0.39469217  0.15521617  0.21431229     0.35600
C410        C  0.37536580  0.02036322  0.26270661    -0.21900
C411        C  0.39175225  0.02093655  0.24548360    -0.21900
C412        C  0.37259106  0.22945005  0.26621329    -0.21900
C413        C  0.38913131  0.23032579  0.24906834    -0.21900
C414        C  0.30105754  0.10461487  0.29565617    -0.22900
C415        C  0.30055039  0.14056234  0.29634145    -0.22900
C416        C  0.40203273  0.10997315  0.19489498    -0.22900
C417        C  0.40116312  0.14584441  0.19553009    -0.22900
C418        C  0.33724584  0.06106607  0.27954576    -0.18300
C419        C  0.39551529  0.06351811  0.21908555    -0.18300
C420        C  0.39342858  0.18983594  0.22139744    -0.18300
C421        C  0.33529942  0.18666846  0.28174705    -0.18300
H422        H  0.37074218  0.49561409  0.27226324     0.14600
H423        H  0.39487664  0.49538878  0.23738324     0.14600
H424        H  0.37161663  0.25044384  0.27665241     0.14600
H425        H  0.40342626  0.25206456  0.24369840     0.14600
H426        H  0.28577397  0.08729722  0.30403373     0.12900
H427        H  0.28479785  0.15656335  0.30531832     0.12900
H428        H  0.40670704  0.09403092  0.18235237     0.12900
H429        H  0.40505388  0.16303941  0.18356486     0.12900
H430        H  0.35390033  0.09515729  0.24574243     0.26200
H431        H  0.35213427  0.15550235  0.24673361     0.26200
C432        C  0.41554332  0.44053372  0.08133634     0.42500
N433        N  0.45768711  0.43117942  0.09898208     0.01400
C434        C  0.05190319  0.28123616  0.10032697    -0.06500
H435        H  0.42205270  0.26091637  0.10904104     0.06900
C436        C  0.43667285  0.32989366  0.17144116    -0.06900
Co437      Co  0.49165691  0.36507219  0.08704560     0.74200
N438        N  0.45467349  0.30429855  0.10276320    -0.26000
Co439      Co  0.49194155  0.30531474  0.12346507     0.74100
C440        C  0.42162846  0.29622513  0.16659804     0.42600
N441        N  0.46049273  0.41383619  0.15568919     0.01000
N442        N  0.45734309  0.30996219  0.14517711     0.01100
N443        N  0.05100769  0.32108942  0.07670077    -0.46900
H444        H  0.42452070  0.39065576  0.06368106     0.06800
N445        N  0.45471685  0.32766244  0.08905152     0.01400
N446        N  0.02712064  0.30857925  0.14514405     0.01100
C447        C  0.06264794  0.29272203  0.16620419     0.42700
N448        N  0.46004813  0.43630273  0.14154106    -0.25500
C449        C  0.05476967  0.40400390  0.07528304    -0.06400
N450        N  0.43322071  0.45363191  0.09614922    -0.46600
N451        N  0.04714806  0.28284422  0.14997326    -0.46800
C452        C  0.07329196  0.43442032  0.08182440     0.42500
N453        N  0.52626208  0.32531612  0.08774122     0.01400
N454        N  0.02890045  0.43635405  0.14112044    -0.25500
N455        N  0.45689903  0.40460364  0.08686582    -0.26000
N456        N  0.02885491  0.41390635  0.15529824     0.01000
H457        H  0.05088022  0.48713611  0.13785518     0.06900
H458        H  0.05246340  0.34177206  0.18440508     0.06900
N459        N  0.52676909  0.30239854  0.10165042    -0.26100
N460        N  0.45857265  0.33604523  0.15756728    -0.25700
N461        N  0.53031643  0.42894624  0.09806465     0.01400
C462        C  0.41260703  0.29570392  0.08292496     0.42800
C463        C  0.43863463  0.46178968  0.14589747    -0.06900
N464        N  0.02800168  0.33494009  0.15742697    -0.25700
H465        H  0.43521392  0.34433448  0.18475022     0.06900
N466        N  0.42995293  0.32360190  0.07701181    -0.46900
H467        H  0.43604940  0.48594471  0.13816416     0.06900
C468        C  0.06227781  0.45478341  0.16445794     0.42600
C469        C  0.43116986  0.40822580  0.07522187    -0.06400
Co470      Co  0.49497049  0.43368370  0.11967720     0.73800
N471        N  0.44085162  0.42320435  0.16993096    -0.46600
C472        C  0.06804060  0.29338274  0.08300380     0.42900
N473        N  0.05601843  0.44912938  0.09636405    -0.46600
Co474      Co  0.49532737  0.37398561  0.15642219     0.73900
C475        C  0.04964237  0.32728723  0.17118738    -0.06900
C476        C  0.42878487  0.28265222  0.10007534    -0.06500
N477        N  0.52876324  0.40251777  0.08586500    -0.26000
N478        N  0.43583805  0.28567181  0.15010417    -0.46800
H479        H  0.05898183  0.26054341  0.10986924     0.06900
C480        C  0.04952081  0.46273259  0.14547787    -0.06900
Cl481      Cl  0.49357227  0.36953371  0.12170161    -0.49900
C482        C  0.42575024  0.45305850  0.16474212     0.42600
H483        H  0.06033128  0.38579923  0.06385108     0.06800
N484        N  0.04804419  0.42421278  0.16955974    -0.46600
C485        C  0.43578642  0.02288978  0.20335805    -0.26300
C486        C  0.40357223  0.03587162  0.20483425    -0.14400
C487        C  0.37892366  0.02288120  0.19254981     0.36300
C488        C  0.38671818  0.99713162  0.17889529    -0.25700
C489        C  0.41541226  0.47982413  0.17870761    -0.15000
C490        C  0.43770415  0.49309165  0.19236233     0.37300
N491        N  0.47076860  0.48010595  0.19321148    -0.89200
H492        H  0.44492796  0.52998476  0.21535399     0.18500
H493        H  0.36763012  0.98726685  0.16946588     0.18500
N494        N  0.34592696  0.03591365  0.19398388    -0.88300
H495        H  0.47475061  0.47049482  0.20692121     0.35800
H496        H  0.48689918  0.50109213  0.19111738     0.40900
H497        H  0.33023590  0.01481395  0.19672261     0.40500
H498        H  0.33946187  0.04633509  0.18078931     0.35400
C499        C  0.37592989  0.23908996  0.20132688    -0.26300
C500        C  0.40186864  0.21873445  0.20840382    -0.14400
C501        C  0.43463582  0.22533490  0.20243220     0.36300
C502        C  0.44031698  0.25107352  0.18881794    -0.25700
C503        C  0.41424619  0.27064228  0.18136642    -0.15000
C504        C  0.38185018  0.26510156  0.18777540     0.37300
N505        N  0.35522911  0.28564970  0.18039134    -0.89200
H506        H  0.35093412  0.23404540  0.20610479     0.18500
H507        H  0.46532980  0.25581188  0.18394366     0.18500
N508        N  0.46250032  0.20640778  0.20964941    -0.88300
H509        H  0.33290181  0.27842730  0.18674905     0.35800
H510        H  0.35303970  0.27978014  0.16585874     0.40900
H511        H  0.45554228  0.18852411  0.22005214     0.40500
H512        H  0.47804993  0.22446429  0.21643340     0.35400
C513        C  0.10555152  0.03236757  0.18715926    -0.26300
C514        C  0.09114115  0.03248873  0.20540590    -0.14400
C515        C  0.06758880  0.00676548  0.20992397     0.36300
C516        C  0.06122325  0.48076679  0.19719507    -0.25700
C517        C  0.07383505  0.48142016  0.17852276    -0.15000
C518        C  0.09607787  0.50826091  0.17339630     0.37300
N519        N  0.10953568  0.50935884  0.15443157    -0.89200
H520        H  0.12359745  0.05226117  0.18367160     0.18500
H521        H  0.04384015  0.46053711  0.20115996     0.18500
N522        N  0.05124478  0.00740420  0.22805281    -0.88300
H523        H  0.12398026  0.48702443  0.15246936     0.35800
H524        H  0.12531308  0.53084654  0.15294898     0.40900
H525        H  0.05550044  0.98351275  0.23471244     0.40500
H526        H  0.53277287  0.01203436  0.22716926     0.35400
C527        C  0.05290808  0.25963845  0.19600496    -0.26300
C528        C  0.07340049  0.26680998  0.18035756    -0.14400
C529        C  0.10317390  0.24826886  0.17803728     0.36300
C530        C  0.11180933  0.22264043  0.19142376    -0.25700
C531        C  0.09112809  0.21532144  0.20695856    -0.15000
C532        C  0.06149035  0.23417078  0.20927481     0.37300
N533        N  0.03955057  0.22755793  0.22487040    -0.89200
H534        H  0.02981693  0.27354161  0.19775251     0.18500
H535        H  0.13462793  0.20824195  0.18975382     0.18500
N536        N  0.12478194  0.25609718  0.16236522    -0.88300
H537        H  0.56875546  0.23554537  0.23718986     0.35800
H538        H  0.03275521  0.20118248  0.22440411     0.40900
H539        H  0.11260003  0.24905800  0.14977831     0.40500
H540        H  0.14606024  0.24076239  0.16297557     0.35400
C541        C  0.06179670  0.99731934  0.82111707    -0.26300
C542        C  0.08328415  0.02359227  0.82795798    -0.14400
C543        C  0.11707244  0.02153207  0.82288038     0.36300
C544        C  0.12894146  0.49220459  0.81095877    -0.25700
C545        C  0.10618276  0.46988928  0.80186471    -0.15000
C546        C  0.07217817  0.47561699  0.80447971     0.37300
N547        N  0.53561797  0.44452317  0.79826878    -0.89200
H548        H  0.03586752  0.99814145  0.82477163     0.18500
H549        H  0.15512741  0.48823786  0.80872819     0.18500
N550        N  0.14059907  0.04707110  0.82910953    -0.88300
H551        H  0.54287582  0.41959855  0.80249916     0.35800
H552        H  0.53403362  0.44477015  0.78339536     0.40900
H553        H  0.13990878  0.04861128  0.84399072     0.40500
H554        H  0.13401607  0.07118215  0.82341461     0.35400
C555        C  0.05754505  0.26274363  0.81684797    -0.26300
C556        C  0.07807829  0.23894654  0.82623671    -0.14400
C557        C  0.11233773  0.23996206  0.82267333     0.36300
C558        C  0.12511076  0.26550241  0.81022439    -0.25700
C559        C  0.10424107  0.28986323  0.80146850    -0.15000
C560        C  0.06989641  0.28786024  0.80450726     0.37300
N561        N  0.53311441  0.30379706  0.79060246    -0.89200
H562        H  0.03124909  0.26195017  0.81903006     0.18500
H563        H  0.15137823  0.26663083  0.80740322     0.18500
N564        N  0.13397854  0.21564181  0.83178658    -0.88300
H565        H  0.51885079  0.28714994  0.78203954     0.35800
H566        H  0.54373284  0.32210126  0.78151291     0.40900
H567        H  0.13355548  0.22118586  0.84641452     0.40500
H568        H  0.15829010  0.21949425  0.82726018     0.35400
C569        C  0.38378850  0.50492599  0.82636094    -0.26300
C570        C  0.41314984  0.02211069  0.82569490    -0.14400
C571        C  0.43243416  0.00825624  0.81071545     0.36300
C572        C  0.41949550  0.98195639  0.79886122    -0.25700
C573        C  0.38934433  0.46680276  0.79842327    -0.15000
C574        C  0.37142357  0.47779073  0.81472071     0.37300
N575        N  0.34079968  0.46162084  0.81979743    -0.89200
H576        H  0.37047051  0.51232059  0.83918371     0.18500
H577        H  0.43453582  0.97139802  0.78738964     0.18500
N578        N  0.46530480  0.02083237  0.80756685    -0.88300
H579        H  0.34499509  0.43500804  0.82192872     0.35800
H580        H  0.32451880  0.46418970  0.80836127     0.40900
H581        H  0.46661744  0.03058226  0.79371181     0.40500
H582        H  0.48138297  0.99959167  0.80841271     0.35400
C583        C  0.37869371  0.24740501  0.82649117    -0.26300
C584        C  0.40667967  0.22761304  0.82176839    -0.14400
C585        C  0.42392667  0.23464637  0.80482122     0.36300
C586        C  0.41340497  0.26165327  0.79296130    -0.25700
C587        C  0.38602187  0.28219825  0.79786549    -0.15000
C588        C  0.36805985  0.27467032  0.81460392     0.37300
N589        N  0.33960200  0.29513784  0.81958433    -0.89200
H590        H  0.36596120  0.24247128  0.83980240     0.18500
H591        H  0.42700095  0.26704311  0.77998682     0.18500
N592        N  0.45253676  0.21467846  0.79978923    -0.88300
H593        H  0.32940188  0.28649897  0.83242089     0.35800
H594        H  0.32179189  0.29077350  0.80906885     0.40900
H595        H  0.47234940  0.23196225  0.79825998     0.40500
H596        H  0.44824796  0.20287856  0.78651377     0.35400
C597        C  0.15355107  0.30241795  0.06293188    -0.26300
C598        C  0.15532570  0.27190537  0.05180000    -0.14400
C599        C  0.13087133  0.24584621  0.05373845     0.36300
C600        C  0.10367731  0.25204703  0.06557754    -0.25700
C601        C  0.10057546  0.28382112  0.07548851    -0.15000
C602        C  0.12664015  0.30848757  0.07502634     0.37300
N603        N  0.12625688  0.34014130  0.08625794    -0.89200
H604        H  0.17265496  0.32216275  0.06171802     0.18500
H605        H  0.08389831  0.23295030  0.06606793     0.18500
N606        N  0.13266321  0.21343247  0.04340065    -0.88300
H607        H  0.14694553  0.33979691  0.09513375     0.35800
H608        H  0.10587226  0.34112211  0.09535042     0.40900
H609        H  0.15493818  0.20132657  0.04683300     0.40500
H610        H  0.13275124  0.21867828  0.02880923     0.35400
C611        C  0.35048255  0.24730683  0.05243299    -0.26300
C612        C  0.32601781  0.27295160  0.05060390    -0.14400
C613        C  0.32816890  0.30403884  0.06146799     0.36300
C614        C  0.35591616  0.30992811  0.07301958    -0.25700
C615        C  0.38114815  0.28507046  0.07414940    -0.15000
C616        C  0.37798942  0.25310759  0.06423822     0.37300
N617        N  0.40350040  0.22740137  0.06529802    -0.89200
H618        H  0.34878361  0.22332405  0.04414246     0.18500
H619        H  0.35852758  0.33458386  0.08061569     0.18500
N620        N  0.30263392  0.32988882  0.06024533    -0.88300
H621        H  0.41239372  0.22276718  0.05149619     0.35800
H622        H  0.39294028  0.20420534  0.07020942     0.40900
H623        H  0.30293336  0.33976662  0.04640784     0.40500
H624        H  0.30759411  0.35086057  0.06948171     0.40200
C625        C  0.11131641  0.25607667  0.92958347    -0.26300
C626        C  0.09080976  0.22945439  0.93667318    -0.14400
C627        C  0.09887427  0.21381674  0.95423892     0.36300
C628        C  0.12803086  0.22351867  0.96360262    -0.25700
C629        C  0.14912107  0.24943887  0.95636276    -0.15000
C630        C  0.14000316  0.26661182  0.93940008     0.37300
N631        N  0.15906427  0.29499366  0.93199320    -0.89200
H632        H  0.10565139  0.26786529  0.91599280     0.18500
H633        H  0.13416263  0.21087140  0.97689757     0.18500
N634        N  0.07837651  0.18754970  0.96285279    -0.88300
H635        H  0.18280585  0.28607574  0.92889389     0.35800
H636        H  0.16076200  0.31439661  0.94254598     0.40900
H637        H  0.05681916  0.18320648  0.95505460     0.40500
H638        H  0.07076738  0.19723093  0.97613558     0.35400
C639        C  0.36428431  0.19954044  0.94678574    -0.26300
C640        C  0.38140645  0.22164525  0.93427171    -0.14400
C641        C  0.37078443  0.25665472  0.93247879     0.36300
C642        C  0.34310307  0.26840009  0.94291696    -0.25700
C643        C  0.32572449  0.24574862  0.95506777    -0.15000
C644        C  0.33695573  0.21114650  0.95715465     0.37300
N645        N  0.32099982  0.18718334  0.96979033    -0.89200
H646        H  0.37193727  0.17258170  0.94832526     0.18500
H647        H  0.33512201  0.29526214  0.94157158     0.18500
N648        N  0.38679170  0.28032659  0.91974800    -0.88300
H649        H  0.29636320  0.18448263  0.96567258     0.35800
H650        H  0.32169399  0.19760947  0.98361494     0.40900
H651        H  0.38590089  0.26964220  0.90598042     0.40500
H652        H  0.41149078  0.28264369  0.92381887     0.35400
C653        C  0.14174036  0.49264602  0.06262154    -0.26300
C654        C  0.16064960  0.46799007  0.05244536    -0.14400
C655        C  0.15319960  0.43203148  0.05418863     0.36300
C656        C  0.12535749  0.42196994  0.06454200    -0.25700
C657        C  0.10509480  0.44659934  0.07375728    -0.15000
C658        C  0.11425157  0.48213450  0.07349309     0.37300
N659        N  0.09480459  0.50774865  0.08335689    -0.89200
H660        H  0.14753927  0.52021135  0.06148381     0.18500
H661        H  0.11905891  0.39452187  0.06485818     0.18500
N662        N  0.17258917  0.40510435  0.04514110    -0.88300
H663        H  0.08638114  0.52578423  0.07339469     0.35800
H664        H  0.11014630  0.52098512  0.09299054     0.40900
H665        H  0.19348969  0.41512285  0.03841728     0.40500
H666        H  0.15802844  0.39330328  0.03458473     0.35400
C667        C  0.35335397  0.50035411  0.05775133    -0.26300
C668        C  0.32956815  0.47575875  0.05187112    -0.14400
C669        C  0.33250187  0.44074013  0.05770260     0.36300
C670        C  0.35981561  0.43054306  0.06831567    -0.25700
C671        C  0.38460924  0.45453638  0.07336674    -0.15000
C672        C  0.38100352  0.49003887  0.06850986     0.37300
N673        N  0.40609320  0.51500156  0.07362320    -0.89200
H674        H  0.35110186  0.52719449  0.05315624     0.18500
H675        H  0.36226104  0.40325720  0.07207728     0.18500
N676        N  0.30884749  0.41465039  0.05223973    -0.88300
H677        H  0.39960499  0.53994453  0.06899062     0.35800
H678        H  0.42763045  0.50815020  0.06627176     0.40900
H679        H  0.28580386  0.42173952  0.05771076     0.40500
H680        H  0.30740897  0.41372930  0.03736640     0.35400
C681        C  0.14374367  0.06417876  0.96207870    -0.26300
C682        C  0.15498371  0.02971702  0.96046776    -0.14400
C683        C  0.13706507  0.00579066  0.94876238     0.36300
C684        C  0.10917767  0.01750677  0.93853779    -0.25700
C685        C  0.09839920  0.05231040  0.94007365    -0.15000
C686        C  0.11556646  0.07536520  0.95242175     0.37300
N687        N  0.10415044  0.11041404  0.95539285    -0.89200
H688        H  0.15636652  0.08234752  0.97153714     0.18500
H689        H  0.09655508  0.99961938  0.92894474     0.18500
N690        N  0.14658497  0.96979831  0.94672236    -0.88300
H691        H  0.09932511  0.11386354  0.96994392     0.35800
H692        H  0.12316430  0.12755713  0.95163909     0.40900
H693        H  0.17567168  0.45342156  0.94390481     0.40500
H694        H  0.13739882  0.44047370  0.93825269     0.35400
C695        C  0.35529233  0.00820869  0.95748435    -0.26300
C696        C  0.32953149  0.03223317  0.96079917    -0.14400
C697        C  0.33262954  0.06625316  0.95380743     0.36300
C698        C  0.36045069  0.07544484  0.94312654    -0.25700
C699        C  0.38610965  0.05145695  0.93926572    -0.15000
C700        C  0.38377711  0.01758350  0.94696319     0.37300
N701        N  0.40991628  0.99285960  0.94408839    -0.89200
H702        H  0.35348362  0.98237829  0.96360379     0.18500
H703        H  0.36184708  0.10191376  0.93781401     0.18500
N704        N  0.30791200  0.09190527  0.95801203    -0.88300
H705        H  0.40369360  0.96882552  0.95009599     0.35800
H706        H  0.43034811  0.00213040  0.95170221     0.40900
H707        H  0.29885584  0.10134974  0.94510928     0.40500
H708        H  0.31920963  0.11267900  0.96528583     0.35400
C709        C  0.17759563  0.49503070  0.71248701    -0.26300
C710        C  0.15625074  0.46772968  0.70735039    -0.14400
C711        C  0.14144232  0.46758917  0.68914429     0.36300
C712        C  0.14564404  0.99316114  0.68000793    -0.25700
C713        C  0.16988895  0.01873360  0.68330040    -0.15000
C714        C  0.18776726  0.01839280  0.70070654     0.37300
N715        N  0.21254050  0.04382672  0.70539431    -0.89200
H716        H  0.18871265  0.49545337  0.72653611     0.18500
H717        H  0.13164287  0.99329804  0.66685911     0.18500
N718        N  0.11781792  0.44153635  0.68355531    -0.88300
H719        H  0.20155636  0.06844770  0.70626948     0.35800
H720        H  0.23065664  0.04382218  0.69477631     0.40900
H721        H  0.09865539  0.44150620  0.69355529     0.40500
H722        H  0.12909587  0.41705141  0.68357616     0.35400
C723        C  0.18518649  0.23093929  0.69909932    -0.26300
C724        C  0.17088682  0.23214945  0.68089233    -0.14400
C725        C  0.15093987  0.26094508  0.67605685     0.36300
C726        C  0.14540587  0.28758989  0.68965193    -0.25700
C727        C  0.16010829  0.28643810  0.70772504    -0.15000
C728        C  0.18074603  0.25819830  0.71235004     0.37300
N729        N  0.19714689  0.25744592  0.73050031    -0.89200
H730        H  0.20085421  0.20922981  0.70286099     0.18500
H731        H  0.12946523  0.30931680  0.68621095     0.18500
N732        N  0.13556032  0.26252659  0.65763000    -0.88300
H733        H  0.21357453  0.27855002  0.73097719     0.35800
H734        H  0.21136326  0.23482002  0.73171978     0.40900
H735        H  0.15409954  0.26670623  0.64754107     0.40500
H736        H  0.11994712  0.28419862  0.65688519     0.35400
C737        C  0.35105305  0.51773737  0.68745962    -0.26300
C738        C  0.31938504  0.01291048  0.67887704    -0.14400
C739        C  0.29854954  0.98436711  0.68316243     0.36300
C740        C  0.30432208  0.46644184  0.69611510    -0.25700
C741        C  0.33508550  0.46600615  0.70526500    -0.15000
C742        C  0.35892550  0.49190831  0.70073416     0.37300
N743        N  0.39136326  0.49267733  0.70903063    -0.89200
H744        H  0.36917855  0.53765526  0.68411702     0.18500
H745        H  0.28612762  0.44668492  0.69960409     0.18500
N746        N  0.26848182  0.97869509  0.67271198    -0.88300
H747        H  0.40842787  0.48992033  0.69792503     0.35800
H748        H  0.39534748  0.47154813  0.71800106     0.40900
H749        H  0.25297419  0.99994369  0.67534087     0.40500
H750        H  0.25608453  0.95655044  0.67767608     0.35400
C751        C  0.35734548  0.23849211  0.68052049    -0.26300
C752        C  0.32444539  0.23044852  0.67620157    -0.14400
C753        C  0.29886401  0.24907541  0.68530790     0.36300
C754        C  0.30645684  0.27550721  0.69856486    -0.25700
C755        C  0.33930656  0.28356240  0.70295147    -0.15000
C756        C  0.36500317  0.26488068  0.69382486     0.37300
N757        N  0.39893833  0.27236744  0.69779159    -0.89200
H758        H  0.37710347  0.22426417  0.67352037     0.18500
H759        H  0.28664753  0.28958976  0.70561491     0.18500
N760        N  0.26511635  0.24074333  0.68133325    -0.88300
H761        H  0.40300306  0.26868603  0.71234811     0.35800
H762        H  0.40337963  0.29864058  0.69470915     0.40900
H763        H  0.25349256  0.26331145  0.67651907     0.40500
H764        H  0.25401948  0.23355927  0.69419377     0.35400
C765        C  0.18868954  0.50620234  0.32038831    -0.26300
C766        C  0.16360064  0.48434447  0.32731889    -0.14400
C767        C  0.13155750  0.48684826  0.31969969     0.36300
C768        C  0.11383077  0.01672187  0.31136556    -0.25700
C769        C  0.13862636  0.03371620  0.30093719    -0.15000
C770        C  0.17199403  0.02571436  0.30451049     0.37300
N771        N  0.19822322  0.04224366  0.29421763    -0.89200
H772        H  0.21355549  0.50390133  0.32589011     0.18500
H773        H  0.08818873  0.02289373  0.30869482     0.18500
N774        N  0.10541044  0.46454322  0.32605117    -0.88300
H775        H  0.19637166  0.06926668  0.29626160     0.35800
H776        H  0.19524008  0.03672616  0.27969762     0.40900
H777        H  0.10256040  0.46813726  0.34075449     0.40500
H778        H  0.11238946  0.43861032  0.32351709     0.35400
C779        C  0.17782170  0.23619050  0.32685019    -0.26300
C780        C  0.15865503  0.26656018  0.32876364    -0.14400
C781        C  0.13072752  0.27076938  0.31710492     0.36300
C782        C  0.12225121  0.24429154  0.30390099    -0.25700
C783        C  0.14180183  0.21420871  0.30167068    -0.15000
C784        C  0.17009168  0.21032202  0.31318368     0.37300
N785        N  0.19105486  0.18032467  0.31077618    -0.89200
H786        H  0.19955904  0.23315936  0.33563811     0.18500
H787        H  0.10049548  0.24724559  0.29512183     0.18500
N788        N  0.11109346  0.30187265  0.31875140    -0.88300
H789        H  0.21071599  0.18130234  0.32039393     0.35800
H790        H  0.20135600  0.18144484  0.29711633     0.40900
H791        H  0.10053580  0.30221148  0.33236479     0.40500
H792        H  0.09158324  0.30109345  0.30902857     0.35400
C793        C  0.29845038  0.48394364  0.30732684    -0.26300
C794        C  0.31748914  0.48138204  0.32396992    -0.14400
C795        C  0.33692224  0.00822033  0.32480297     0.36300
C796        C  0.34444900  0.03351775  0.31108827    -0.25700
C797        C  0.32817056  0.03380744  0.29350271    -0.15000
C798        C  0.30387936  0.00837345  0.28946587     0.37300
N799        N  0.28612522  0.00822738  0.27182638    -0.89200
H800        H  0.27769261  0.46649255  0.30506707     0.18500
H801        H  0.36319968  0.05306580  0.31404243     0.18500
N802        N  0.35423906  0.00793571  0.34266233    -0.88300
H803        H  0.29816471  0.50887075  0.26522622     0.35800
H804        H  0.27440738  0.03238790  0.27044996     0.40900
H805        H  0.37552702  0.47905170  0.34382715     0.40500
H806        H  0.37137397  0.02838630  0.34334350     0.35400
C807        C  0.29443249  0.26392589  0.30673636    -0.26300
C808        C  0.31256133  0.26567308  0.32379755    -0.14400
C809        C  0.33712245  0.24025086  0.32724900     0.36300
C810        C  0.34304616  0.21420880  0.31349016    -0.25700
C811        C  0.32536727  0.21295568  0.29634515    -0.15000
C812        C  0.30033573  0.23780224  0.29302343     0.37300
N813        N  0.28055935  0.23743537  0.27601234    -0.89200
H814        H  0.27505293  0.28271971  0.30411475     0.18500
H815        H  0.36227402  0.19516709  0.31599591     0.18500
N816        N  0.35698944  0.24029448  0.34423036    -0.88300
H817        H  0.25608725  0.23312796  0.28013512     0.35800
H818        H  0.28683908  0.21675278  0.26691529     0.40900
H819        H  0.35154267  0.26134374  0.35323405     0.40500
H820        H  0.38155671  0.24366654  0.34005255     0.35400
C821        C  0.09921823  0.24911323  0.55710762    -0.26300
C822        C  0.07673065  0.22329759  0.55119830    -0.14400
C823        C  0.07993025  0.18893144  0.55802337     0.36300
C824        C  0.10652015  0.18070849  0.56971894    -0.25700
C825        C  0.13011202  0.20587842  0.57480105    -0.15000
C826        C  0.12577758  0.24079311  0.56895972     0.37300
N827        N  0.14860980  0.26787693  0.57406310    -0.89200
H828        H  0.09658230  0.27562769  0.55204208     0.18500
H829        H  0.10941658  0.15425077  0.57458701     0.18500
N830        N  0.05727470  0.16171831  0.55273101    -0.88300
H831        H  0.17218389  0.26045657  0.56957223     0.35800
H832        H  0.14855550  0.27063168  0.58889981     0.40900
H833        H  0.03369484  0.16870869  0.55741210     0.40500
H834        H  0.05695506  0.15951654  0.53786595     0.35400
C835        C  0.35631539  0.17603081  0.55174458    -0.26300
C836        C  0.34707494  0.19893834  0.56663683    -0.14400
C837        C  0.36655368  0.22902719  0.57032166     0.36300
C838        C  0.39503088  0.23489508  0.55926298    -0.25700
C839        C  0.40346478  0.21207702  0.54430820    -0.15000
C840        C  0.38377494  0.18260390  0.54044753     0.37300
N841        N  0.39089065  0.15927049  0.52487556    -0.89200
H842        H  0.34175586  0.15296269  0.54848555     0.18500
H843        H  0.41003837  0.25794752  0.56180061     0.18500
N844        N  0.35712210  0.25395733  0.58474478    -0.88300
H845        H  0.38936890  0.17317293  0.51215680     0.35800
H846        H  0.41508716  0.15037187  0.52634696     0.40900
H847        H  0.33529371  0.26574894  0.58020543     0.40500
H848        H  0.37465838  0.27394889  0.58586858     0.35400
C849        C  0.10069143  0.30167286  0.46630570    -0.26300
C850        C  0.07891221  0.27738476  0.45825698    -0.14400
C851        C  0.08495000  0.26414894  0.43976479     0.36300
C852        C  0.11333334  0.27521198  0.42982523    -0.25700
C853        C  0.13585001  0.29890762  0.43815403    -0.15000
C854        C  0.12897614  0.31229651  0.45671799     0.37300
N855        N  0.15039200  0.33603573  0.46663545    -0.89200
H856        H  0.09602782  0.31186599  0.48054053     0.18500
H857        H  0.11795112  0.26498497  0.41563100     0.18500
N858        N  0.06252492  0.23935510  0.43130656    -0.88300
H859        H  0.15146944  0.35947919  0.45919523     0.35800
H860        H  0.17383035  0.32492102  0.46770182     0.40900
H861        H  0.06319823  0.21666472  0.43947411     0.40500
H862        H  0.07041871  0.23232654  0.41759408     0.35400
C863        C  0.40400513  0.29937012  0.44974510    -0.26300
C864        C  0.40948835  0.26332430  0.45058767    -0.14400
C865        C  0.38804877  0.24033218  0.44055983     0.36300
C866        C  0.36103360  0.25414862  0.43054355    -0.25700
C867        C  0.35449418  0.29021894  0.43069791    -0.15000
C868        C  0.37665496  0.31289755  0.44017708     0.37300
N869        N  0.37161621  0.34987144  0.44015201    -0.89200
H870        H  0.42021830  0.31710823  0.45743832     0.18500
H871        H  0.34424630  0.23637898  0.42332928     0.18500
N872        N  0.39210922  0.20302126  0.44082620    -0.88300
H873        H  0.39282741  0.36124510  0.43440460     0.35800
H874        H  0.36943232  0.35843944  0.45430418     0.40900
H875        H  0.41286309  0.19587024  0.44862887     0.40500
H876        H  0.39638658  0.19469744  0.42679270     0.35400
C877        C  0.08113764  0.03626277  0.55445772    -0.26300
C878        C  0.07736967  0.00000623  0.55432815    -0.14400
C879        C  0.09866069  0.97935301  0.56556447     0.36300
C880        C  0.12466659  0.99571687  0.57559519    -0.25700
C881        C  0.12942520  0.03210485  0.57478335    -0.15000
C882        C  0.10637027  0.05242202  0.56474050     0.37300
N883        N  0.10788842  0.08972186  0.56517466    -0.89200
H884        H  0.06436323  0.05229070  0.54629474     0.18500
H885        H  0.14179461  0.97979318  0.58353329     0.18500
N886        N  0.09519758  0.94204422  0.56671391    -0.88300
H887        H  0.08546540  0.09883334  0.57064913     0.35800
H888        H  0.11009978  0.09850052  0.55114462     0.40900
H889        H  0.07505571  0.93316797  0.55878336     0.40500
H890        H  0.09008543  0.93603117  0.58093972     0.35400
C891        C  0.38825970  0.99635835  0.55730146    -0.26300
C892        C  0.40596780  0.02257589  0.54773684    -0.14400
C893        C  0.39649393  0.05772670  0.55028833     0.36300
C894        C  0.36869027  0.06587420  0.56124197    -0.25700
C895        C  0.34944838  0.03967340  0.56981766    -0.15000
C896        C  0.36014619  0.00455542  0.56830813     0.37300
N897        N  0.34218837  0.97663214  0.57698745    -0.89200
H898        H  0.39556510  0.96929504  0.55557030     0.18500
H899        H  0.36159081  0.09306321  0.56257546     0.18500
N900        N  0.41417123  0.08563617  0.54138642    -0.88300
H901        H  0.31803289  0.97685728  0.57180100     0.35800
H902        H  0.34153926  0.98117752  0.59169940     0.40900
H903        H  0.43858427  0.08523170  0.54614143     0.40500
H904        H  0.41408273  0.08136531  0.52664679     0.35400
C905        C  0.08226247  0.44135308  0.44636340    -0.26300
C906        C  0.07984920  0.47179732  0.45753519    -0.14400
C907        C  0.10452550  0.49777651  0.45610078     0.36300
C908        C  0.13268660  0.49134800  0.44480600    -0.25700
C909        C  0.13629997  0.45957864  0.43490638    -0.15000
C910        C  0.11010676  0.43506198  0.43504905     0.37300
N911        N  0.11127408  0.40339428  0.42399025    -0.89200
H912        H  0.06310132  0.42160547  0.44715669     0.18500
H913        H  0.15268184  0.51020053  0.44465224     0.18500
N914        N  0.10152124  0.52973768  0.46689570    -0.88300
H915        H  0.13065205  0.38790159  0.42876099     0.35800
H916        H  0.11568791  0.40989523  0.40976338     0.40900
H917        H  0.08079719  0.54293313  0.46182286     0.40500
H918        H  0.12043569  0.04855909  0.46036359     0.35400
C919        C  0.38058639  0.44188038  0.43244262    -0.26300
C920        C  0.35387037  0.46473210  0.43089120    -0.14400
C921        C  0.35532137  0.49786408  0.43983488     0.36300
C922        C  0.38281771  0.50669349  0.45096892    -0.25700
C923        C  0.40847137  0.48262279  0.45360753    -0.15000
C924        C  0.40758832  0.45015557  0.44389830     0.37300
N925        N  0.43271769  0.42431648  0.44635146    -0.89200
H926        H  0.37955363  0.41664276  0.42540701     0.18500
H927        H  0.38331966  0.53155177  0.45850309     0.18500
N928        N  0.32842182  0.52194175  0.43884447    -0.88300
H929        H  0.43452561  0.41859613  0.46085909     0.35800
H930        H  0.45522038  0.43458785  0.44174435     0.40900
H931        H  0.30732682  0.50981613  0.44434001     0.40500
H932        H  0.32420903  0.52756762  0.42451449     0.35400
N933        N  0.44326756  0.00750771  0.49934267    -0.36600
N934        N  0.99447228  0.97639689  0.47659906    -0.57100
N935        N  0.04433331  0.48354053  0.50674826    -0.36600
N936        N  0.99514875  0.49132755  0.53695583    -0.57100
C937        C  0.42495797  0.99753480  0.48404632     0.27000
C938        C  0.42443507  0.49360947  0.51859017     0.27000
C939        C  0.06289593  0.97306441  0.49160201     0.27000
C940        C  0.06340165  0.48066732  0.52248495     0.27000
C941        C  0.46834056  0.00266648  0.45883265     0.35600
C942        C  0.02154821  0.98025045  0.46561945     0.35600
C943        C  0.46612726  0.51089219  0.54252015     0.35600
C944        C  0.02250150  0.49996457  0.54694320     0.35600
C945        C  0.39334539  0.98901474  0.49008816    -0.21900
C946        C  0.39360375  0.48088908  0.51359163    -0.21900
C947        C  0.09400883  0.96393382  0.49806819    -0.21900
C948        C  0.09416526  0.46795339  0.51732858    -0.21900
C949        C  0.47844700  0.00634399  0.44007104    -0.22900
C950        C  0.01251462  0.98541380  0.44679794    -0.22900
C951        C  0.47642514  0.52897513  0.55866565    -0.22900
C952        C  0.01381935  0.51612212  0.56401259    -0.22900
C953        C  0.43540242  0.99711885  0.46468584    -0.18300
C954        C  0.43314912  0.50591823  0.53691847    -0.18300
C955        C  0.05523718  0.49362037  0.54084071    -0.18300
C956        C  0.05422186  0.97630193  0.47209888    -0.18300
H957        H  0.37281416  0.98035522  0.48139409     0.14600
H958        H  0.37284107  0.47619841  0.52295999     0.14600
H959        H  0.11537918  0.95706121  0.48956244     0.14600
H960        H  0.11514213  0.46368430  0.52651384     0.14600
H961        H  0.46301283  0.00760526  0.42752489     0.12900
H962        H  0.02864025  0.98872611  0.43462432     0.12900
H963        H  0.46116929  0.54193424  0.56924593     0.12900
H964        H  0.03013710  0.52572308  0.57508966     0.12900
H965        H  0.46631447  0.01871101  0.49899431     0.26200
H966        H  0.02241735  0.49693651  0.50603104     0.26200
N967        N  0.04357321  0.75039065  0.50598092    -0.36600
N968        N  0.49342032  0.72777151  0.52722945    -0.57100
N969        N  0.44424897  0.74208913  0.49844607    -0.36600
N970        N  0.49486553  0.74509386  0.46854910    -0.57100
C971        C  0.06137081  0.73619562  0.52025769     0.27000
C972        C  0.06212852  0.74826712  0.48995421     0.27000
C973        C  0.42467996  0.73131292  0.51294373     0.27000
C974        C  0.42568186  0.74172306  0.48243540     0.27000
C975        C  0.01927446  0.73955099  0.54592818     0.35600
C976        C  0.46680297  0.73004479  0.53875313     0.35600
C977        C  0.02198922  0.77313435  0.46718616     0.35600
C978        C  0.46892008  0.75830695  0.45895211     0.35600
C979        C  0.09149049  0.72477687  0.51319684    -0.21900
C980        C  0.09194713  0.73235303  0.49407053    -0.21900
C981        C  0.39327191  0.72432894  0.50602835    -0.21900
C982        C  0.39391076  0.73094972  0.48680706    -0.21900
C983        C  0.00900615  0.74009772  0.56479821    -0.22900
C984        C  0.47648237  0.72964852  0.55769012    -0.22900
C985        C  0.01313962  0.79338825  0.45173357    -0.22900
C986        C  0.47969830  0.77549730  0.44279103    -0.22900
C987        C  0.05204052  0.73539906  0.53970801    -0.18300
C988        C  0.05455665  0.76429896  0.47238293    -0.18300
C989        C  0.43559234  0.75440477  0.46443034    -0.18300
C990        C  0.43384361  0.72912450  0.53239521    -0.18300
H991        H  0.11134280  0.71280655  0.52107557     0.14600
H992        H  0.11229380  0.72758516  0.48437697     0.14600
H993        H  0.37191586  0.71577495  0.51402814     0.14600
H994        H  0.37317942  0.72864664  0.47717222     0.14600
H995        H  0.02429674  0.73936546  0.57741886     0.12900
H996        H  0.46079903  0.73017870  0.57019860     0.12900
H997        H  0.02937598  0.80590722  0.44159574     0.12900
H998        H  0.46477453  0.78856414  0.43226722     0.12900
H999        H  0.02225395  0.76504488  0.50759335     0.26200
H1000       H  0.46746254  0.75326480  0.49974497     0.26200
C1001       C  0.32612086  0.94936040  0.41944700     0.42500
N1002       N  0.28145865  0.94021971  0.40371114     0.01400
C1003       C  0.18204454  0.79340632  0.41029958    -0.06500
H1004       H  0.31187199  0.76927370  0.39616875     0.06900
C1005       C  0.28922579  0.83022576  0.33180525    -0.06900
Co1006     Co  0.24668049  0.87677337  0.41818374     0.74200
N1007       N  0.28052181  0.81369948  0.40237195    -0.26000
Co1008     Co  0.24095671  0.81341548  0.38299785     0.74100
C1009       C  0.30376077  0.79647785  0.33675975     0.42600
N1010       N  0.27052766  0.91810873  0.34733184     0.01000
N1011       N  0.27297257  0.81463746  0.35981097     0.01100
N1012       N  0.18773484  0.83565868  0.43269752    -0.46900
H1013       H  0.31694568  0.90208621  0.43857537     0.06800
N1014       N  0.28187022  0.83814157  0.41569550     0.01400
N1015       N  0.20208704  0.81415207  0.36360768     0.01100
C1016       C  0.16604211  0.79462483  0.34354950     0.42700
N1017       N  0.27355707  0.94160710  0.36114544    -0.25500
C1018       C  0.18785711  0.91933732  0.43332550    -0.06400
N1019       N  0.30706639  0.96193989  0.40520172    -0.46600
N1020       N  0.18291369  0.78706801  0.35957835    -0.46800
C1021       C  0.16859360  0.94877784  0.42690591     0.42500
N1022       N  0.21046157  0.83845132  0.41929919     0.01400
N1023       N  0.20249157  0.94238293  0.36507362    -0.25500
N1024       N  0.28275106  0.91480762  0.41626607    -0.26000
N1025       N  0.19979611  0.91832902  0.35154513     0.01000
H1026       H  0.18191264  0.99387347  0.36811867     0.06900
H1027       H  0.17302594  0.84244617  0.32452243     0.06900
N1028       N  0.20792850  0.81404598  0.40600059    -0.26100
N1029       N  0.27049933  0.83927104  0.34682803    -0.25700
N1030       N  0.20859623  0.94035479  0.40743108     0.01400
C1031       C  0.32439679  0.80655940  0.42137261     0.42800
C1032       C  0.29344385  0.96725443  0.35514925    -0.06900
N1033       N  0.19930893  0.83936361  0.35100360    -0.25700
H1034       H  0.28942629  0.84352639  0.31826838     0.06900
N1035       N  0.30725055  0.83470936  0.42722676    -0.46900
H1036       H  0.29653938  0.99220139  0.36231513     0.06900
C1037       C  0.16541472  0.95846550  0.34331730     0.42600
C1038       C  0.30994148  0.91843339  0.42678459    -0.06400
Co1039     Co  0.24160067  0.94196100  0.38444742     0.73800
N1040       N  0.28676129  0.92705711  0.33170240    -0.46600
C1041       C  0.16870637  0.80790865  0.42819592     0.42900
N1042       N  0.18277944  0.96088325  0.41077122    -0.46600
Co1043     Co  0.23493933  0.87868745  0.34895059     0.73900
C1044       C  0.17666034  0.82971753  0.33805838    -0.06900
C1045       C  0.30650409  0.79217482  0.40477100    -0.06500
N1046       N  0.21153053  0.91559691  0.42025868    -0.26000
N1047       N  0.29237960  0.78867908  0.35431801    -0.46800
H1048       H  0.17370876  0.77120127  0.40194334     0.06900
C1049       C  0.18169634  0.96853244  0.36114820    -0.06900
Cl1050     Cl  0.24106212  0.87773772  0.38358548    -0.49900
C1051       C  0.30223784  0.95762570  0.33557965     0.42600
H1052       H  0.18413356  0.90290069  0.44557054     0.06800
N1053       N  0.17844585  0.92725844  0.33818701    -0.46600
C1054       C  0.32079250  0.55740021  0.57913093     0.42500
N1055       N  0.27975485  0.56640947  0.59792182     0.01400
C1056       C  0.18230137  0.71426576  0.60124681    -0.06500
H1057       H  0.31577660  0.73426728  0.60692111     0.06900
C1058       C  0.30504497  0.67376517  0.66987625    -0.06900
Co1059     Co  0.24292839  0.63058621  0.58687999     0.74200
N1060       N  0.28085292  0.69265538  0.60105959    -0.26000
Co1061     Co  0.24600906  0.69247730  0.62308473     0.74100
C1062       C  0.31754354  0.70837333  0.66476516     0.42600
N1063       N  0.28262667  0.58606632  0.65434269     0.01000
N1064       N  0.28285452  0.69045065  0.64357583     0.01100
N1065       N  0.18100829  0.67238171  0.57823851    -0.46900
H1066       H  0.30716440  0.60496588  0.56085481     0.06800
N1067       N  0.27919139  0.66882000  0.58739586     0.01400
N1068       N  0.21159351  0.69061878  0.64512091     0.01100
C1069       C  0.17827417  0.70698013  0.66744027     0.42700
N1070       N  0.28153827  0.56288343  0.64030309    -0.25500
C1071       C  0.18268224  0.58733095  0.57451473    -0.06400
N1072       N  0.30493597  0.54501100  0.59469476    -0.46600
N1073       N  0.19188398  0.71634503  0.65062274    -0.46800
C1074       C  0.16595211  0.55569319  0.58076427     0.42500
N1075       N  0.20720120  0.66914780  0.58924798     0.01400
N1076       N  0.21031384  0.56346275  0.64190007    -0.25500
N1077       N  0.27839546  0.59194951  0.58547690    -0.26000
N1078       N  0.21157437  0.58710058  0.65570149     0.01000
H1079       H  0.18817968  0.51244538  0.64027137     0.06900
H1080       H  0.18972647  0.65799073  0.68486258     0.06900
N1081       N  0.20850922  0.69310960  0.60286450    -0.26100
N1082       N  0.28365411  0.66492255  0.65607666    -0.25700
N1083       N  0.20711212  0.56631285  0.59923115     0.01400
C1084       C  0.32218867  0.69872260  0.58034961     0.42800
C1085       C  0.30123073  0.53612613  0.64464607    -0.06900
N1086       N  0.21204288  0.66475743  0.65738437    -0.25700
H1087       H  0.30710133  0.66063840  0.68341146     0.06900
N1088       N  0.30333301  0.67147955  0.57484999    -0.46900
H1089       H  0.30132827  0.51117340  0.63726196     0.06900
C1090       C  0.17936527  0.54731035  0.66662463     0.42600
C1091       C  0.30291797  0.58825660  0.57295537    -0.06400
Co1092     Co  0.24462268  0.56397708  0.61975510     0.73800
N1093       N  0.30157142  0.57576538  0.66856955    -0.46600
C1094       C  0.16421448  0.70031587  0.58487170     0.42900
N1095       N  0.18277315  0.54364341  0.59604293    -0.46600
Co1096     Co  0.24758127  0.62577852  0.65609030     0.73900
C1097       C  0.19125501  0.67226124  0.67164631    -0.06900
C1098       C  0.30734820  0.71310814  0.59781774    -0.06500
N1099       N  0.20721942  0.59204341  0.58687827    -0.26000
N1100       N  0.30236358  0.71685132  0.64834240    -0.46800
H1101       H  0.17605460  0.73547887  0.61087191     0.06900
C1102       C  0.19011820  0.53761104  0.64734605    -0.06900
Cl1103     Cl  0.24533173  0.62815746  0.62148535    -0.49900
C1104       C  0.31428662  0.54436763  0.66356571     0.42600
H1105       H  0.17871954  0.60307541  0.56202420     0.06800
N1106       N  0.19347033  0.57844928  0.67060898    -0.46600
N1107       N  0.29283447  0.00547756  0.00760045    -0.36600
N1108       N  0.24347295  0.99358073  0.03670518    -0.57100
N1109       N  0.19252503  0.00279355  0.00742048    -0.36600
N1110       N  0.24364481  0.49729576  0.97357240    -0.57100
C1111       C  0.31152891  0.00536865  0.02357314     0.27000
C1112       C  0.31330290  0.49346769  0.98732051     0.27000
C1113       C  0.17366438  0.00037226  0.02330818     0.27000
C1114       C  0.17521696  0.48740646  0.98795892     0.27000
C1115       C  0.27024066  0.98295687  0.04648979     0.35600
C1116       C  0.21698621  0.98291006  0.04677406     0.35600
C1117       C  0.27016333  0.50751743  0.96314441     0.35600
C1118       C  0.21628566  0.50595557  0.96355535     0.35600
C1119       C  0.34193335  0.02044528  0.01988756    -0.21900
C1120       C  0.34156501  0.03040629  0.00117330    -0.21900
C1121       C  0.14135719  0.00902706  0.01895060    -0.21900
C1122       C  0.14486292  0.47325794  0.99278722    -0.21900
C1123       C  0.26081800  0.96657934  0.06316190    -0.22900
C1124       C  0.22697761  0.96676591  0.06341781    -0.22900
C1125       C  0.25954574  0.52155863  0.94607320    -0.22900
C1126       C  0.22547183  0.52071242  0.94637601    -0.22900
C1127       C  0.30307392  0.98894895  0.04081330    -0.18300
C1128       C  0.30375993  0.50384539  0.96876978    -0.18300
C1129       C  0.18322598  0.50012361  0.96966566    -0.18300
C1130       C  0.18387849  0.98744712  0.04120711    -0.18300
H1131       H  0.36244991  0.02367651  0.02958428     0.14600
H1132       H  0.36620890  0.48039690  0.98307329     0.14600
H1133       H  0.12014093  0.00885808  0.02833148     0.14600
H1134       H  0.12433280  0.46781531  0.98336242     0.14600
H1135       H  0.27665466  0.95571341  0.07399104     0.12900
H1136       H  0.21150046  0.95579126  0.07445310     0.12900
H1137       H  0.27474709  0.53169621  0.93467916     0.12900
H1138       H  0.20931804  0.52996446  0.93525519     0.12900
H1139       H  0.27114363  0.99166985  0.00558670     0.26200
H1140       H  0.21641435  0.99410386  0.00608705     0.26200
N1141       N  0.19349137  0.76555585  0.00432064    -0.36600
N1142       N  0.24324226  0.76998028  0.03369000    -0.57100
N1143       N  0.29249427  0.75785175  0.00455216    -0.36600
N1144       N  0.24251163  0.75559816  0.97454941    -0.57100
C1145       C  0.17580234  0.77874173  0.01908737     0.27000
C1146       C  0.17517750  0.76955037  0.98840083     0.27000
C1147       C  0.31157528  0.76830887  0.01937738     0.27000
C1148       C  0.31117661  0.76011838  0.98859610     0.27000
C1149       C  0.21631912  0.76912342  0.04500046     0.35600
C1150       C  0.26954835  0.76540349  0.04512342     0.35600
C1151       C  0.21507343  0.74588063  0.96480863     0.35600
C1152       C  0.26876304  0.74276335  0.96478410     0.35600
C1153       C  0.14622220  0.79199563  0.01238682    -0.21900
C1154       C  0.14573082  0.78592803  0.99302715    -0.21900
C1155       C  0.34263226  0.77750162  0.01271343    -0.21900
C1156       C  0.34241114  0.77218145  0.99331727    -0.21900
C1157       C  0.22552686  0.76415274  0.06380937    -0.22900
C1158       C  0.25941458  0.76195588  0.06389416    -0.22900
C1159       C  0.22397276  0.72751456  0.94847901    -0.22900
C1160       C  0.25802495  0.72565063  0.94842678    -0.22900
C1161       C  0.18392688  0.77534163  0.03859984    -0.18300
C1162       C  0.18232478  0.75417945  0.97047672    -0.18300
C1163       C  0.30217541  0.74715607  0.97039609    -0.18300
C1164       C  0.30253815  0.76745654  0.03888317    -0.18300
H1165       H  0.12642651  0.80345825  0.02070703     0.14600
H1166       H  0.12552476  0.79176031  0.98352016     0.14600
H1167       H  0.36358600  0.78635906  0.02100607     0.14600
H1168       H  0.36317703  0.77591179  0.98382219     0.14600
H1169       H  0.20958672  0.76293782  0.07618688     0.12900
H1170       H  0.27483973  0.75873548  0.07632778     0.12900
H1171       H  0.20765462  0.71657372  0.93777387     0.12900
H1172       H  0.27312236  0.71289525  0.93769993     0.12900
H1173       H  0.21412972  0.74967811  0.00543015     0.26200
H1174       H  0.26980746  0.74527952  0.00553413     0.26200
C1175       C  0.41467637  0.55098231  0.92278182     0.42500
N1176       N  0.43334514  0.58430076  0.90073358     0.01400
C1177       C  0.08089417  0.58278890  0.84847704    -0.06500
H1178       H  0.10232055  0.60420796  0.91925221     0.06900
C1179       C  0.03869180  0.71461273  0.91959837    -0.06900
Co1180     Co  0.49656567  0.56217656  0.88253925     0.74200
N1181       N  0.05771420  0.59152211  0.90418494    -0.26000
Co1182     Co  0.05707899  0.62994633  0.88346179     0.74100
C1183       C  0.07078935  0.70262499  0.92692983     0.42600
N1184       N  0.44912148  0.68632242  0.90298514     0.01000
N1185       N  0.05418244  0.66762598  0.90487325     0.01100
N1186       N  0.04338033  0.53931059  0.85063853    -0.46900
H1187       H  0.46082432  0.51527790  0.92037674     0.06800
N1188       N  0.03688021  0.56490232  0.90485608     0.01400
N1189       N  0.05525969  0.67082782  0.86343688     0.01100
C1190       C  0.06669846  0.71158407  0.84338147     0.42700
N1191       N  0.42848719  0.65975132  0.90101279    -0.25500
C1192       C  0.45877729  0.53471874  0.84729096    -0.06400
N1193       N  0.40821015  0.57920773  0.91231023    -0.46600
N1194       N  0.07784386  0.68101725  0.85076593    -0.46800
C1195       C  0.42994065  0.54442878  0.83639177     0.42500
N1196       N  0.03795063  0.56389373  0.86351183     0.01400
N1197       N  0.43138048  0.66202203  0.85961633    -0.25500
N1198       N  0.45746176  0.56150479  0.90284822    -0.26000
N1199       N  0.45204589  0.68852646  0.86164941     0.01000
H1200       H  0.38885672  0.65454388  0.84132607     0.06900
H1201       H  0.02067584  0.74278645  0.85221777     0.06900
N1202       N  0.05914114  0.59009286  0.86257164    -0.26100
N1203       N  0.02993721  0.69061406  0.90620106    -0.25700
N1204       N  0.43691307  0.58163221  0.85926337     0.01400
C1205       C  0.07336057  0.55473661  0.92648239     0.42800
C1206       C  0.40353481  0.66337285  0.91325684    -0.06900
N1207       N  0.03093474  0.69353228  0.86502971    -0.25700
H1208       H  0.02579169  0.73873551  0.92264329     0.06900
N1209       N  0.04621734  0.54126518  0.91763037    -0.46900
H1210       H  0.38197163  0.64671068  0.91390185     0.06900
C1211       C  0.42122328  0.70406306  0.83859719     0.42600
C1212       C  0.44758425  0.53854774  0.91636743    -0.06400
Co1213     Co  0.43217494  0.62183042  0.87982636     0.73800
N1214       N  0.43814586  0.70967026  0.91576282    -0.46600
C1215       C  0.06999661  0.54882116  0.84051224     0.42900
N1216       N  0.41684462  0.57326269  0.84490773    -0.46600
Co1217     Co  0.48768156  0.69061541  0.88267045     0.73900
C1218       C  0.03582782  0.71963460  0.85296928    -0.06900
C1219       C  0.08082387  0.58769301  0.91748308    -0.06500
N1220       N  0.46105229  0.55881992  0.86115929    -0.26000
N1221       N  0.07848320  0.67370696  0.91696132    -0.46800
H1222       H  0.10173080  0.59894784  0.84465783     0.06900
C1223       C  0.41017694  0.66983218  0.84548460    -0.06900
Cl1224     Cl  0.49223104  0.62645388  0.88123441    -0.49900
C1225       C  0.40967356  0.69616850  0.92301863     0.42600
H1226       H  0.47447499  0.51209122  0.84560462     0.06800
N1227       N  0.44690843  0.71388017  0.84940153    -0.46600
N1228       N  0.12556324  0.87624755  0.78640806    -0.36600
N1229       N  0.13709763  0.93011470  0.75843641    -0.57100
N1230       N  0.15257208  0.87610782  0.73038103    -0.36600
N1231       N  0.14459523  0.82205819  0.75898989    -0.57100
C1232       C  0.12349409  0.90512479  0.79771065     0.27000
C1233       C  0.12703918  0.84802027  0.79787812     0.27000
C1234       C  0.16294726  0.90500321  0.72119142     0.27000
C1235       C  0.16585283  0.84828119  0.72122805     0.27000
C1236       C  0.12264666  0.94989121  0.77212686     0.35600
C1237       C  0.13730869  0.94955571  0.74246973     0.35600
C1238       C  0.13161512  0.80164946  0.77275290     0.35600
C1239       C  0.14607676  0.80198974  0.74303760     0.35600
C1240       C  0.12376728  0.89508390  0.81665169    -0.21900
C1241       C  0.12589150  0.85906797  0.81675340    -0.21900
C1242       C  0.18327462  0.89545274  0.70608098    -0.21900
C1243       C  0.18498729  0.85953735  0.70605628    -0.21900
C1244       C  0.11399796  0.98218036  0.76486078    -0.22900
C1245       C  0.12331073  0.98195840  0.74605766    -0.22900
C1246       C  0.12563879  0.76830282  0.76561936    -0.22900
C1247       C  0.13478563  0.76853268  0.74679234    -0.22900
C1248       C  0.11844256  0.93984286  0.79130940    -0.18300
C1249       C  0.12507366  0.81260286  0.79169858    -0.18300
C1250       C  0.15875534  0.81304142  0.72530897    -0.18300
C1251       C  0.15206348  0.93935694  0.72506827    -0.18300
H1252       H  0.12165722  0.91189027  0.82909222     0.14600
H1253       H  0.12565432  0.84276592  0.82928074     0.14600
H1254       H  0.19492876  0.91253660  0.69584127     0.14600
H1255       H  0.19831588  0.84350127  0.69585498     0.14600
H1256       H  0.10119517  0.50635956  0.76906040     0.12900
H1257       H  0.11660182  0.50454163  0.73251821     0.12900
H1258       H  0.11539865  0.74617623  0.77311603     0.12900
H1259       H  0.13306026  0.74662337  0.73696576     0.12900
H1260       H  0.12132438  0.87539280  0.77184710     0.26200
H1261       H  0.13397889  0.87512263  0.74056988     0.26200
N1262       N  0.36195501  0.82298584  0.75557793    -0.36600
N1263       N  0.34979787  0.87597350  0.72725038    -0.57100
N1264       N  0.36129624  0.92944994  0.75578319    -0.36600
N1265       N  0.37060662  0.87638913  0.78495364    -0.57100
C1266       C  0.35006670  0.80308029  0.74108562     0.27000
C1267       C  0.36107319  0.80329366  0.77146817     0.27000
C1268       C  0.34750507  0.94866915  0.74179500     0.27000
C1269       C  0.36104548  0.94918424  0.77185916     0.27000
C1270       C  0.35216609  0.84775592  0.71565299     0.35600
C1271       C  0.35077542  0.90421335  0.71588338     0.35600
C1272       C  0.38085428  0.84810513  0.79474310     0.35600
C1273       C  0.38182664  0.90484273  0.79456357     0.35600
C1274       C  0.34152444  0.77033035  0.74783888    -0.21900
C1275       C  0.34852468  0.77044716  0.76702055    -0.21900
C1276       C  0.33821531  0.98096256  0.74913550    -0.21900
C1277       C  0.34715779  0.98144665  0.76806949    -0.21900
C1278       C  0.35463839  0.85803785  0.69681310    -0.22900
C1279       C  0.35385170  0.89388976  0.69695907    -0.22900
C1280       C  0.39793410  0.85866475  0.81090854    -0.22900
C1281       C  0.39855284  0.89462804  0.81079492    -0.22900
C1282       C  0.34897147  0.81291874  0.72172199    -0.18300
C1283       C  0.37448362  0.81293586  0.78936625    -0.18300
C1284       C  0.37584892  0.93989451  0.78929721    -0.18300
C1285       C  0.34593306  0.93891658  0.72227894    -0.18300
H1286       H  0.33195814  0.74836553  0.73971153     0.14600
H1287       H  0.34541315  0.74858014  0.77654387     0.14600
H1288       H  0.32762159  0.50226419  0.73884742     0.14600
H1289       H  0.34773213  0.50266191  0.77462117     0.14600
H1290       H  0.35626579  0.84142274  0.68426958     0.12900
H1291       H  0.35484485  0.91042687  0.68453651     0.12900
H1292       H  0.40896984  0.84220639  0.82160093     0.12900
H1293       H  0.40995730  0.91133307  0.82145103     0.12900
H1294       H  0.37402969  0.84680807  0.75421929     0.26200
H1295       H  0.37424925  0.90624582  0.75397472     0.26200
N1296       N  0.13864738  0.62498837  0.28014690    -0.36600
N1297       N  0.11872805  0.67856582  0.25361498    -0.57100
N1298       N  0.10504355  0.62469623  0.22500545    -0.36600
N1299       N  0.12201698  0.57107616  0.25225918    -0.57100
C1300       C  0.13684635  0.65326970  0.29185474     0.27000
C1301       C  0.13808535  0.59628744  0.29127637     0.27000
C1302       C  0.09031301  0.65286927  0.21719450     0.27000
C1303       C  0.09243800  0.59588784  0.21629255     0.27000
C1304       C  0.13372552  0.69875245  0.26695601     0.35600
C1305       C  0.11552088  0.69850747  0.23792907     0.35600
C1306       C  0.13628069  0.55095646  0.26565486     0.35600
C1307       C  0.11896784  0.55088588  0.23642903     0.35600
C1308       C  0.13513569  0.64236071  0.31064338    -0.21900
C1309       C  0.13611472  0.60642238  0.31027998    -0.21900
C1310       C  0.06819441  0.64184165  0.20331930    -0.21900
C1311       C  0.06956665  0.60589616  0.20273247    -0.21900
C1312       C  0.14026403  0.73161540  0.25967085    -0.22900
C1313       C  0.12876053  0.73143816  0.24124736    -0.22900
C1314       C  0.14229034  0.51781366  0.25834011    -0.22900
C1315       C  0.13146207  0.51780906  0.23978441    -0.22900
C1316       C  0.13911792  0.68857986  0.28603389    -0.18300
C1317       C  0.14151099  0.56133564  0.28480185    -0.18300
C1318       C  0.10209238  0.56092935  0.21970605    -0.18300
C1319       C  0.09802767  0.68825162  0.22138048    -0.18300
H1320       H  0.13383345  0.65859736  0.32334106     0.14600
H1321       H  0.13576494  0.58966663  0.32262645     0.14600
H1322       H  0.05281436  0.65802601  0.19443624     0.14600
H1323       H  0.05534213  0.58905547  0.19335853     0.14600
H1324       H  0.15172543  0.75355985  0.26693573     0.12900
H1325       H  0.12936272  0.75326329  0.23154685     0.12900
H1326       H  0.14282269  0.99441210  0.26802600     0.12900
H1327       H  0.12785518  0.99470311  0.23138209     0.12900
H1328       H  0.14390774  0.62535458  0.26564020     0.26200
H1329       H  0.12510684  0.62527756  0.23420942     0.26200
N1330       N  0.36122272  0.57010936  0.25005437    -0.36600
N1331       N  0.34507642  0.62351416  0.27838498    -0.57100
N1332       N  0.36495415  0.67682765  0.25161497    -0.36600
N1333       N  0.38337857  0.62370471  0.22387211    -0.57100
C1334       C  0.35714188  0.55031839  0.26578964     0.27000
C1335       C  0.37736389  0.55031550  0.23695408     0.27000
C1336       C  0.36233695  0.69579543  0.26792178     0.27000
C1337       C  0.38267948  0.69610929  0.23915670     0.27000
C1338       C  0.33179032  0.59534001  0.28698098     0.35600
C1339       C  0.33317051  0.65190820  0.28767559     0.35600
C1340       C  0.38597699  0.59565206  0.21212267     0.35600
C1341       C  0.38760473  0.65225187  0.21292792     0.35600
C1342       C  0.37048951  0.51746540  0.26257835    -0.21900
C1343       C  0.38306752  0.51738340  0.24436302    -0.21900
C1344       C  0.37882659  0.72735064  0.26584455    -0.21900
C1345       C  0.39145216  0.72765786  0.24763317    -0.21900
C1346       C  0.31145084  0.60579581  0.30186982    -0.22900
C1347       C  0.31213952  0.64170001  0.30223528    -0.22900
C1348       C  0.39241901  0.60642432  0.19365761    -0.22900
C1349       C  0.39335892  0.64231224  0.19416183    -0.22900
C1350       C  0.33991592  0.56036525  0.28252567    -0.18300
C1351       C  0.38545179  0.56050615  0.21815148    -0.18300
C1352       C  0.38915526  0.68694034  0.21994794    -0.18300
C1353       C  0.34301904  0.68666969  0.28396579    -0.18300
H1354       H  0.37455716  0.99858018  0.27242997     0.14600
H1355       H  0.40608696  0.99976617  0.23939323     0.14600
H1356       H  0.38093745  0.74831653  0.27624451     0.14600
H1357       H  0.40525132  0.74885827  0.24130792     0.14600
H1358       H  0.29779751  0.58926497  0.31154958     0.12900
H1359       H  0.29904047  0.65829243  0.31226032     0.12900
H1360       H  0.39669568  0.59015341  0.18119430     0.12900
H1361       H  0.39854422  0.65910092  0.18218208     0.12900
H1362       H  0.35040315  0.59423818  0.24765057     0.26200
H1363       H  0.35171379  0.65426676  0.24832637     0.26200
C1364       C  0.41914237  0.93761177  0.07897963     0.42500
N1365       N  0.46048292  0.92975029  0.09753650     0.01400
C1366       C  0.05248957  0.78762342  0.10070352    -0.06500
H1367       H  0.42763382  0.76071488  0.10869804     0.06900
C1368       C  0.43589994  0.82841070  0.17070328    -0.06900
Co1369     Co  0.49734781  0.86479754  0.08706036     0.74200
N1370       N  0.46060296  0.80350656  0.10225078    -0.26000
Co1371     Co  0.49541934  0.80614298  0.12411497     0.74100
C1372       C  0.42269455  0.79387130  0.16568004     0.42600
N1373       N  0.45842379  0.91463073  0.15431618     0.01000
N1374       N  0.45854077  0.80971264  0.14470752     0.01100
N1375       N  0.05137251  0.82826027  0.07745762    -0.46900
H1376       H  0.43180096  0.88824256  0.06134408     0.06800
N1377       N  0.46153818  0.82609539  0.08818748     0.01400
N1378       N  0.02443975  0.81098083  0.14496799     0.01100
C1379       C  0.05674048  0.79297017  0.16711334     0.42700
N1380       N  0.45917412  0.93693476  0.14007153    -0.25500
C1381       C  0.05002055  0.91003966  0.07396848    -0.06400
N1382       N  0.43535891  0.95100394  0.09425248    -0.46600
N1383       N  0.04290647  0.78428907  0.15023192    -0.46800
C1384       C  0.06801814  0.94082460  0.08039489     0.42500
N1385       N  0.53329321  0.82675199  0.08962727     0.01400
N1386       N  0.02653889  0.93846605  0.14097136    -0.25500
N1387       N  0.46155925  0.90324950  0.08539139    -0.26000
N1388       N  0.02635510  0.91568829  0.15499847     0.01000
H1389       H  0.05037733  0.98830850  0.13761842     0.06900
H1390       H  0.04631062  0.84190280  0.18542439     0.06900
N1391       N  0.53264928  0.80405583  0.10365667    -0.26100
N1392       N  0.45781485  0.83602307  0.15700020    -0.25700
N1393       N  0.53316680  0.92992685  0.09853883     0.01400
C1394       C  0.42051848  0.79288743  0.08136911     0.42800
C1395       C  0.43929943  0.96384333  0.14441253    -0.06900
N1396       N  0.02480304  0.83691372  0.15751046    -0.25700
H1397       H  0.43332693  0.84264236  0.18402069     0.06900
N1398       N  0.43792931  0.82086593  0.07552278    -0.46900
H1399       H  0.43889824  0.98840949  0.13690990     0.06900
C1400       C  0.06153367  0.95494146  0.16389849     0.42600
C1401       C  0.43667588  0.90606479  0.07305812    -0.06400
Co1402     Co  0.49580265  0.93408663  0.11914540     0.73800
N1403       N  0.43937808  0.92547065  0.16851414    -0.46600
C1404       C  0.06960157  0.80179478  0.08414933     0.42900
N1405       N  0.05179388  0.95418627  0.09567420    -0.46600
Co1406     Co  0.49371652  0.87534064  0.15650716     0.73900
C1407       C  0.04455453  0.82796435  0.17197403    -0.06900
C1408       C  0.43531183  0.78135474  0.09923457    -0.06500
N1409       N  0.53316353  0.90315176  0.08656671    -0.26000
N1410       N  0.43829404  0.78407055  0.14947673    -0.46800
H1411       H  0.06012402  0.76733327  0.11035862     0.06900
C1412       C  0.04825983  0.96389119  0.14517657    -0.06900
Cl1413     Cl  0.49551124  0.87013305  0.12174736    -0.49900
C1414       C  0.42606167  0.95626457  0.16335077     0.42600
H1415       H  0.05480714  0.89264051  0.06205282     0.06800
N1416       N  0.04656082  0.92479191  0.16898631    -0.46600
C1417       C  0.42763644  0.51967323  0.20494838    -0.26300
C1418       C  0.39543468  0.53284331  0.20429802    -0.14400
C1419       C  0.37298440  0.51952074  0.19069905     0.36300
C1420       C  0.38336568  0.49331022  0.17783248    -0.25700
C1421       C  0.41876687  0.98382432  0.17754431    -0.15000
C1422       C  0.44352104  0.99683163  0.18983227     0.37300
N1423       N  0.47653071  0.98377269  0.18847961    -0.89200
H1424       H  0.45486375  0.03293884  0.21273785     0.18500
H1425       H  0.36641693  0.48319360  0.16718872     0.18500
N1426       N  0.33995563  0.53297503  0.18993283    -0.88300
H1427       H  0.48293845  0.97356989  0.20173840     0.35800
H1428       H  0.49226261  0.00480669  0.18567103     0.40900
H1429       H  0.32821769  0.52652640  0.20271148     0.40500
H1430       H  0.32665022  0.52063985  0.17900792     0.35400
C1431       C  0.37348201  0.73073709  0.19577132    -0.26300
C1432       C  0.39853408  0.71515318  0.20653604    -0.14400
C1433       C  0.43165046  0.72612602  0.20405516     0.36300
C1434       C  0.43872550  0.75243684  0.19088939    -0.25700
C1435       C  0.41368057  0.76773849  0.18004600    -0.15000
C1436       C  0.38081831  0.75669598  0.18234003     0.37300
N1437       N  0.35514229  0.77183280  0.17101275    -0.89200
H1438       H  0.34820388  0.72212997  0.19766690     0.18500
H1439       H  0.46410734  0.76065658  0.18887276     0.18500
N1440       N  0.45865144  0.71087389  0.21429280    -0.88300
H1441       H  0.33225314  0.76101335  0.17456700     0.35800
H1442       H  0.35965263  0.76494458  0.15678050     0.40900
H1443       H  0.45072590  0.69125303  0.22347511     0.40500
H1444       H  0.46913494  0.73048962  0.22282576     0.35400
C1445       C  0.10512620  0.53381464  0.18704018    -0.26300
C1446       C  0.09219711  0.53324210  0.20563083    -0.14400
C1447       C  0.06965078  0.50672739  0.21065633     0.36300
C1448       C  0.05945327  0.98091349  0.19646956    -0.25700
C1449       C  0.07325264  0.98104399  0.17809728    -0.15000
C1450       C  0.09661205  0.00702720  0.17336974     0.37300
N1451       N  0.11116082  0.00753120  0.15466467    -0.89200
H1452       H  0.12233239  0.55431430  0.18320527     0.18500
H1453       H  0.04133562  0.96130911  0.20026288     0.18500
N1454       N  0.05512435  0.50657304  0.22937480    -0.88300
H1455       H  0.12495077  0.98463969  0.15299176     0.35800
H1456       H  0.12771535  0.02839339  0.15347377     0.40900
H1457       H  0.03908175  0.48531856  0.23084153     0.40500
H1458       H  0.53954396  0.53700046  0.22514659     0.35400
C1459       C  0.05395383  0.76601360  0.19931032    -0.26300
C1460       C  0.06767539  0.76630824  0.18090288    -0.14400
C1461       C  0.09077767  0.74037169  0.17567059     0.36300
C1462       C  0.10079625  0.71571856  0.18924890    -0.25700
C1463       C  0.08728859  0.71564165  0.20770296    -0.15000
C1464       C  0.06303873  0.74071341  0.21258135     0.37300
N1465       N  0.04629612  0.74026940  0.23059560    -0.89200
H1466       H  0.03530102  0.78498069  0.20327549     0.18500
H1467       H  0.11895348  0.69614022  0.18539157     0.18500
N1468       N  0.10449127  0.73957987  0.15674712    -0.88300
H1469       H  0.57231880  0.73794476  0.24032566     0.35800
H1470       H  0.03563421  0.71560182  0.23236507     0.40900
H1471       H  0.08556528  0.73259870  0.14734687     0.40500
H1472       H  0.12226320  0.71992495  0.15552913     0.35400
C1473       C  0.06153829  0.50290856  0.81625017    -0.26300
C1474       C  0.08402553  0.52493232  0.82582890    -0.14400
C1475       C  0.11823489  0.51958032  0.82297141     0.36300
C1476       C  0.12834027  0.99334891  0.81158032    -0.25700
C1477       C  0.10661336  0.96716510  0.80502566    -0.15000
C1478       C  0.07289623  0.96967051  0.80967305     0.37300
N1479       N  0.54313802  0.94166957  0.80572801    -0.89200
H1480       H  0.03521663  0.50648338  0.81822036     0.18500
H1481       H  0.15417090  0.99210231  0.80763323     0.18500
N1482       N  0.14258220  0.54057453  0.83241768    -0.88300
H1483       H  0.55294034  0.91777065  0.80995286     0.35800
H1484       H  0.53964411  0.94102547  0.79096786     0.40900
H1485       H  0.13854695  0.53937214  0.84712178     0.40500
H1486       H  0.13990130  0.56637187  0.82795381     0.35400
C1487       C  0.06325261  0.76018913  0.82043576    -0.26300
C1488       C  0.08316466  0.73531468  0.82949042    -0.14400
C1489       C  0.11743384  0.73543424  0.82573607     0.36300
C1490       C  0.13081276  0.76099182  0.81342782    -0.25700
C1491       C  0.11063158  0.78644909  0.80499720    -0.15000
C1492       C  0.07625497  0.78543650  0.80831391     0.37300
N1493       N  0.54109475  0.81571685  0.79901070    -0.89200
H1494       H  0.03684740  0.76017669  0.82262272     0.18500
H1495       H  0.15705788  0.76128714  0.81048049     0.18500
N1496       N  0.13851572  0.71016312  0.83452252    -0.88300
H1497       H  0.52382059  0.80255355  0.79051145     0.35800
H1498       H  0.55233136  0.83410181  0.79024539     0.40900
H1499       H  0.13839587  0.71522641  0.84919584     0.40500
H1500       H  0.16288532  0.71344268  0.82994104     0.35400
C1501       C  0.38092932  0.00960106  0.82846398    -0.26300
C1502       C  0.41399598  0.52115012  0.82214366    -0.14400
C1503       C  0.43141958  0.51077123  0.80562780     0.36300
C1504       C  0.41887082  0.48400280  0.79384531    -0.25700
C1505       C  0.38774658  0.96861950  0.80195653    -0.15000
C1506       C  0.36820935  0.98268491  0.81684939     0.37300
N1507       N  0.33575651  0.96959442  0.82064164    -0.89200
H1508       H  0.36620316  0.01963396  0.84019988     0.18500
H1509       H  0.43253143  0.47618285  0.78121097     0.18500
N1510       N  0.46201927  0.52734671  0.80082854    -0.88300
H1511       H  0.33752773  0.94288212  0.82346554     0.35800
H1512       H  0.32147742  0.97262749  0.80838616     0.40900
H1513       H  0.45948493  0.53842929  0.78734246     0.40500
H1514       H  0.48012891  0.50802028  0.79984423     0.35400
C1515       C  0.37968355  0.74934064  0.83093069    -0.26300
C1516       C  0.40601258  0.72810705  0.82496281    -0.14400
C1517       C  0.42195545  0.73492634  0.80752295     0.36300
C1518       C  0.41085378  0.76246849  0.79615857    -0.25700
C1519       C  0.38486147  0.78409024  0.80216292    -0.15000
C1520       C  0.36895782  0.77745582  0.81968054     0.37300
N1521       N  0.34257494  0.79967759  0.82609649    -0.89200
H1522       H  0.36837474  0.74478401  0.84470379     0.18500
H1523       H  0.42297367  0.76768017  0.78268686     0.18500
N1524       N  0.44965658  0.71408540  0.80154438    -0.88300
H1525       H  0.33385245  0.79157795  0.83939092     0.35800
H1526       H  0.32305206  0.79669569  0.81650791     0.40900
H1527       H  0.46896553  0.71891222  0.81107901     0.40500
H1528       H  0.45808922  0.72199583  0.78815635     0.35400
C1529       C  0.15533758  0.81023641  0.06378864    -0.26300
C1530       C  0.15704117  0.77944804  0.05284891    -0.14400
C1531       C  0.13198186  0.75393655  0.05464740     0.36300
C1532       C  0.10478585  0.76061807  0.06638977    -0.25700
C1533       C  0.10197417  0.79241536  0.07627757    -0.15000
C1534       C  0.12818064  0.81696153  0.07564522     0.37300
N1535       N  0.12779770  0.84907880  0.08648943    -0.89200
H1536       H  0.17477592  0.82962637  0.06265884     0.18500
H1537       H  0.08480016  0.74175998  0.06688048     0.18500
N1538       N  0.13323844  0.72141081  0.04437895    -0.88300
H1539       H  0.14816997  0.84880445  0.09561142     0.35800
H1540       H  0.10709573  0.85070184  0.09531595     0.40900
H1541       H  0.15532120  0.70891190  0.04777811     0.40500
H1542       H  0.13317539  0.72643114  0.02976712     0.35400
C1543       C  0.34997786  0.74444420  0.05754332    -0.26300
C1544       C  0.32912824  0.77248033  0.05317231    -0.14400
C1545       C  0.33653669  0.80624014  0.06009669     0.36300
C1546       C  0.36589326  0.81181479  0.07020205    -0.25700
C1547       C  0.38766377  0.78422566  0.07373980    -0.15000
C1548       C  0.37920159  0.74995350  0.06798438     0.37300
N1549       N  0.40127942  0.72144946  0.07158037    -0.89200
H1550       H  0.34411920  0.71859176  0.05206589     0.18500
H1551       H  0.37241967  0.83807492  0.07478246     0.18500
N1552       N  0.31479740  0.83490555  0.05619692    -0.88300
H1553       H  0.39198364  0.69824364  0.06567792     0.35800
H1554       H  0.40194824  0.71778155  0.08632010     0.40900
H1555       H  0.31507918  0.83905067  0.04149475     0.40500
H1556       H  0.32356241  0.85790619  0.06260519     0.40200
C1557       C  0.11252243  0.74938133  0.93361629    -0.26300
C1558       C  0.09529457  0.71952509  0.93974501    -0.14400
C1559       C  0.10686996  0.70160730  0.95600302     0.36300
C1560       C  0.13564095  0.71310716  0.96521516    -0.25700
C1561       C  0.15338954  0.74226110  0.95884581    -0.15000
C1562       C  0.14128617  0.76096401  0.94305611     0.37300
N1563       N  0.15778377  0.79160786  0.93633557    -0.89200
H1564       H  0.10437855  0.76290426  0.92097164     0.18500
H1565       H  0.14422463  0.69913745  0.97762586     0.18500
N1566       N  0.09031847  0.67136723  0.96347875    -0.88300
H1567       H  0.18192369  0.78481083  0.93261184     0.35800
H1568       H  0.15882422  0.80981127  0.94753128     0.40900
H1569       H  0.06865521  0.66564029  0.95606422     0.40500
H1570       H  0.08308289  0.67731160  0.97745156     0.35400
C1571       C  0.37102818  0.69075302  0.95002277    -0.26300
C1572       C  0.38525851  0.71248817  0.93620241    -0.14400
C1573       C  0.37158615  0.74603971  0.93338232     0.36300
C1574       C  0.34399432  0.75677813  0.94422726    -0.25700
C1575       C  0.32960392  0.73455616  0.95781046    -0.15000
C1576       C  0.34378346  0.70141427  0.96083933     0.37300
N1577       N  0.33074517  0.67788121  0.97474794    -0.89200
H1578       H  0.38084812  0.66476074  0.95219279     0.18500
H1579       H  0.33373964  0.78255537  0.94207312     0.18500
N1580       N  0.38435528  0.76907962  0.91918541    -0.88300
H1581       H  0.30595472  0.67307218  0.97156128     0.35800
H1582       H  0.33207253  0.68989145  0.98816945     0.40900
H1583       H  0.38306055  0.75638718  0.90594122     0.40500
H1584       H  0.40913780  0.77410247  0.92228254     0.35400
C1585       C  0.14002969  0.99813726  0.06555951    -0.26300
C1586       C  0.15762913  0.97454043  0.05400005    -0.14400
C1587       C  0.14745163  0.93939474  0.05271259     0.36300
C1588       C  0.11904392  0.92882903  0.06218499    -0.25700
C1589       C  0.10005038  0.95271485  0.07282824    -0.15000
C1590       C  0.11111553  0.98748566  0.07494073     0.37300
N1591       N  0.09231806  0.01237661  0.08575135    -0.89200
H1592       H  0.14777587  0.02523431  0.06644074     0.18500
H1593       H  0.11143533  0.90181411  0.06069929     0.18500
N1594       N  0.16485791  0.91421571  0.04127730    -0.88300
H1595       H  0.08585832  0.03281843  0.07670936     0.35800
H1596       H  0.10747829  0.02259748  0.09648517     0.40900
H1597       H  0.18901490  0.91237475  0.04633028     0.40500
H1598       H  0.16561554  0.92296166  0.02721320     0.35400
C1599       C  0.34767421  0.99700294  0.06510171    -0.26300
C1600       C  0.33040976  0.97497816  0.05250538    -0.14400
C1601       C  0.34134528  0.94045537  0.04950150     0.36300
C1602       C  0.36954599  0.92875097  0.05876539    -0.25700
C1603       C  0.38799663  0.95104079  0.07073549    -0.15000
C1604       C  0.37676952  0.98558677  0.07404935     0.37300
N1605       N  0.39537981  0.00929857  0.08587944    -0.89200
H1606       H  0.33928885  0.02363549  0.06718188     0.18500
H1607       H  0.37723736  0.90205132  0.05621589     0.18500
N1608       N  0.32471143  0.91703606  0.03664719    -0.88300
H1609       H  0.38340175  0.03338840  0.08704435     0.35800
H1610       H  0.41778848  0.01412415  0.07895261     0.40900
H1611       H  0.30034891  0.91406454  0.04126618     0.40500
H1612       H  0.32450129  0.92817673  0.02309554     0.35400
C1613       C  0.13864719  0.54258036  0.96396422    -0.26300
C1614       C  0.15470108  0.51206613  0.95784153    -0.14400
C1615       C  0.14092472  0.49253037  0.94245442     0.36300
C1616       C  0.11264663  0.50530608  0.93302185    -0.25700
C1617       C  0.09756817  0.53671265  0.93883698    -0.15000
C1618       C  0.11047079  0.55488402  0.95470983     0.37300
N1619       N  0.09517884  0.58643366  0.96133906    -0.89200
H1620       H  0.14816343  0.55709328  0.97612641     0.18500
H1621       H  0.10323866  0.49134496  0.92066079     0.18500
N1622       N  0.15495162  0.46008336  0.93594773    -0.88300
H1623       H  0.08825068  0.58294989  0.97556880     0.35800
H1624       H  0.11292573  0.60627074  0.96093846     0.40900
H1625       H  0.16775587  0.96436409  0.95458101     0.40500
H1626       H  0.12759099  0.95453274  0.95240026     0.35400
C1627       C  0.35107201  0.49045249  0.94615558    -0.26300
C1628       C  0.33104797  0.51515383  0.95569441    -0.14400
C1629       C  0.34019848  0.55056529  0.95524239     0.36300
C1630       C  0.36839962  0.56091330  0.94513480    -0.25700
C1631       C  0.38867043  0.53653316  0.93559783    -0.15000
C1632       C  0.38007666  0.50074894  0.93629953     0.37300
N1633       N  0.40012499  0.47519285  0.92668085    -0.89200
H1634       H  0.34455581  0.46302442  0.94692063     0.18500
H1635       H  0.37443538  0.58852359  0.94467326     0.18500
N1636       N  0.32104882  0.57614324  0.96536280    -0.88300
H1637       H  0.38959633  0.45033507  0.92789743     0.35800
H1638       H  0.42264923  0.47422089  0.93387206     0.40900
H1639       H  0.31305554  0.59475141  0.95559415     0.40500
H1640       H  0.33645621  0.58870861  0.97522334     0.35400
C1641       C  0.18170769  0.99206705  0.71389718    -0.26300
C1642       C  0.15768769  0.96647952  0.71046869    -0.14400
C1643       C  0.13905802  0.96740026  0.69350996     0.36300
C1644       C  0.14918287  0.49408309  0.67628353    -0.25700
C1645       C  0.17063532  0.52147653  0.68136586    -0.15000
C1646       C  0.18447419  0.52215751  0.69995884     0.37300
N1647       N  0.20579084  0.54955996  0.70663496    -0.89200
H1648       H  0.19580329  0.99158497  0.72701143     0.18500
H1649       H  0.13809360  0.49343380  0.66223513     0.18500
N1650       N  0.11302129  0.94287561  0.68983369    -0.88300
H1651       H  0.19291544  0.57316465  0.70647293     0.35800
H1652       H  0.22643529  0.55113008  0.69774672     0.40900
H1653       H  0.09604922  0.94445250  0.70105620     0.40500
H1654       H  0.12289857  0.91769763  0.68950937     0.35400
C1655       C  0.19150432  0.73356866  0.69889811    -0.26300
C1656       C  0.17190784  0.73337676  0.68241340    -0.14400
C1657       C  0.14852363  0.75993696  0.67980429     0.36300
C1658       C  0.14473740  0.78603614  0.69383026    -0.25700
C1659       C  0.16457911  0.78630200  0.71021784    -0.15000
C1660       C  0.18874492  0.76036730  0.71255446     0.37300
N1661       N  0.21047525  0.76160908  0.72872004    -0.89200
H1662       H  0.21005930  0.71358873  0.70077513     0.18500
H1663       H  0.12615249  0.80603073  0.69201360     0.18500
N1664       N  0.12827103  0.76007830  0.66310154    -0.88300
H1665       H  0.22477782  0.78428102  0.72758082     0.35800
H1666       H  0.22690849  0.74058994  0.72831030     0.40900
H1667       H  0.13204340  0.78378924  0.65613468     0.40500
H1668       H  0.10359981  0.75905651  0.66745958     0.35400
C1669       C  0.34842900  0.01796967  0.68933157    -0.26300
C1670       C  0.32076451  0.51743903  0.67795693    -0.14400
C1671       C  0.29701868  0.49162414  0.68232738     0.36300
C1672       C  0.30752032  0.96139403  0.69775256    -0.25700
C1673       C  0.33719835  0.96570444  0.70782119    -0.15000
C1674       C  0.35814857  0.99426836  0.70338175     0.37300
N1675       N  0.38956756  0.99978138  0.71244639    -0.89200
H1676       H  0.36431299  0.03998032  0.68610284     0.18500
H1677       H  0.29153566  0.93954348  0.70113590     0.18500
N1678       N  0.26575311  0.49089797  0.67266399    -0.88300
H1679       H  0.40768051  0.99851101  0.70183859     0.35800
H1680       H  0.39516132  0.97992358  0.72198293     0.40900
H1681       H  0.25332563  0.51402386  0.67604548     0.40500
H1682       H  0.25105813  0.47040424  0.67763117     0.35400
C1683       C  0.35776021  0.73728285  0.68648723    -0.26300
C1684       C  0.32566171  0.73521173  0.67919434    -0.14400
C1685       C  0.30152071  0.75895384  0.68569726     0.36300
C1686       C  0.30954600  0.78376701  0.69974339    -0.25700
C1687       C  0.34156987  0.78578656  0.70709848    -0.15000
C1688       C  0.36606955  0.76278215  0.70014053     0.37300
N1689       N  0.39960379  0.76544952  0.70636377    -0.89200
H1690       H  0.37653579  0.71944853  0.68129594     0.18500
H1691       H  0.29076096  0.80166671  0.70487990     0.18500
N1692       N  0.26874132  0.75772234  0.67818786    -0.88300
H1693       H  0.40021050  0.76211022  0.72112206     0.35800
H1694       H  0.40811546  0.79063713  0.70334333     0.40900
H1695       H  0.26361379  0.78200905  0.67216621     0.40500
H1696       H  0.25265294  0.75429880  0.68963411     0.35400
C1697       C  0.17995950  0.00116066  0.31840224    -0.26300
C1698       C  0.15525455  0.98419791  0.32892256    -0.14400
C1699       C  0.12171188  0.99200929  0.32534268     0.36300
C1700       C  0.12486372  0.51181542  0.30574439    -0.25700
C1701       C  0.14979866  0.53412941  0.29905024    -0.15000
C1702       C  0.18214206  0.53083952  0.30626635     0.37300
N1703       N  0.20878173  0.55181518  0.29925867    -0.89200
H1704       H  0.20568921  0.99524157  0.32102494     0.18500
H1705       H  0.10005325  0.51403257  0.30017326     0.18500
N1706       N  0.09514666  0.97582998  0.33566552    -0.88300
H1707       H  0.20326606  0.57810547  0.30179216     0.35800
H1708       H  0.21059282  0.54779812  0.28452319     0.40900
H1709       H  0.10378666  0.95838000  0.34583121     0.40500
H1710       H  0.08130313  0.96113706  0.32588860     0.35400
C1711       C  0.18067115  0.73999494  0.32617430    -0.26300
C1712       C  0.15819558  0.76735254  0.32920234    -0.14400
C1713       C  0.12979695  0.76946028  0.31775838     0.36300
C1714       C  0.12391417  0.74347679  0.30381902    -0.25700
C1715       C  0.14645635  0.71610094  0.30072727    -0.15000
C1716       C  0.17548668  0.71482062  0.31178555     0.37300
N1717       N  0.19966943  0.68809546  0.30823694    -0.89200
H1718       H  0.20294027  0.73890883  0.33466529     0.18500
H1719       H  0.10169448  0.74453477  0.29528839     0.18500
N1720       N  0.10714513  0.79795899  0.32033711    -0.88300
H1721       H  0.21950397  0.69071460  0.31764930     0.35800
H1722       H  0.20913825  0.69194827  0.29453311     0.40900
H1723       H  0.09681361  0.79579005  0.33394736     0.40500
H1724       H  0.08768726  0.79591396  0.31062624     0.35400
C1725       C  0.29633671  0.98306430  0.30310541    -0.26300
C1726       C  0.31241049  0.98292333  0.32086002    -0.14400
C1727       C  0.34375482  0.50502113  0.32704097     0.36300
C1728       C  0.35069359  0.53052360  0.31327838    -0.25700
C1729       C  0.33163775  0.53300380  0.29668194    -0.15000
C1730       C  0.30505475  0.50969107  0.29380544     0.37300
N1731       N  0.28393583  0.51225321  0.27753552    -0.89200
H1732       H  0.27720514  0.96402644  0.30000005     0.18500
H1733       H  0.37098656  0.54860859  0.31546221     0.18500
N1734       N  0.36320849  0.50301732  0.34410364    -0.88300
H1735       H  0.30302314  0.00542567  0.26064591     0.35800
H1736       H  0.27387786  0.53738994  0.27738488     0.40900
H1737       H  0.36772411  0.98471582  0.34318324     0.40500
H1738       H  0.38138867  0.52246361  0.34423869     0.35400
C1739       C  0.30518042  0.77013886  0.30404708    -0.26300
C1740       C  0.31523833  0.76919621  0.32318753    -0.14400
C1741       C  0.33442752  0.74084588  0.32944846     0.36300
C1742       C  0.34350001  0.71428287  0.31653280    -0.25700
C1743       C  0.33303568  0.71505872  0.29748415    -0.15000
C1744       C  0.31351808  0.74313739  0.29128545     0.37300
N1745       N  0.30165144  0.74392920  0.27207039    -0.89200
H1746       H  0.28984450  0.79124072  0.29902163     0.18500
H1747       H  0.35862829  0.69285219  0.32140831     0.18500
N1748       N  0.34489291  0.73903279  0.34890676    -0.88300
H1749       H  0.31013853  0.76694205  0.26580125     0.35800
H1750       H  0.27587423  0.74483778  0.27250338     0.40900
H1751       H  0.37064756  0.73790847  0.34908862     0.40500
H1752       H  0.33578953  0.71576928  0.35462815     0.35400
C1753       C  0.09997221  0.75400744  0.55944762    -0.26300
C1754       C  0.07777609  0.72757843  0.55399740    -0.14400
C1755       C  0.08194313  0.69343442  0.56096697     0.36300
C1756       C  0.10928360  0.68596785  0.57226445    -0.25700
C1757       C  0.13269816  0.71173993  0.57669037    -0.15000
C1758       C  0.12733232  0.74645329  0.57082016     0.37300
N1759       N  0.15002295  0.77404224  0.57530742    -0.89200
H1760       H  0.09664919  0.78033264  0.55423097     0.18500
H1761       H  0.11297361  0.65964506  0.57724774     0.18500
N1762       N  0.05960375  0.66568198  0.55609983    -0.88300
H1763       H  0.17339252  0.76702975  0.57028254     0.35800
H1764       H  0.15101500  0.77692293  0.59012669     0.40900
H1765       H  0.03606135  0.67230340  0.56102061     0.40500
H1766       H  0.05879530  0.66316372  0.54126172     0.35400
C1767       C  0.37100123  0.68033808  0.56189466    -0.26300
C1768       C  0.35332808  0.70772773  0.57055065    -0.14400
C1769       C  0.36399690  0.74253299  0.56800773     0.36300
C1770       C  0.39113951  0.74916701  0.55592456    -0.25700
C1771       C  0.40759224  0.72161790  0.54659491    -0.15000
C1772       C  0.39796390  0.68689117  0.55010649     0.37300
N1773       N  0.41476233  0.65785699  0.54149855    -0.89200
H1774       H  0.36334085  0.65352203  0.56400774     0.18500
H1775       H  0.39890779  0.77581612  0.55331689     0.18500
N1776       N  0.34663346  0.77092260  0.57702542    -0.88300
H1777       H  0.41343767  0.66012788  0.52668567     0.35800
H1778       H  0.43956026  0.65893157  0.54552563     0.40900
H1779       H  0.32293137  0.77169321  0.57119309     0.40500
H1780       H  0.35787346  0.79476898  0.57379642     0.35400
C1781       C  0.10565347  0.79875802  0.46822503    -0.26300
C1782       C  0.08280826  0.77549280  0.46021339    -0.14400
C1783       C  0.08797838  0.76267600  0.44151702     0.36300
C1784       C  0.11612445  0.77362002  0.43125236    -0.25700
C1785       C  0.13925309  0.79688263  0.43939797    -0.15000
C1786       C  0.13361604  0.80935152  0.45827191     0.37300
N1787       N  0.15594451  0.83228438  0.46808523    -0.89200
H1788       H  0.10183366  0.80860142  0.48261236     0.18500
H1789       H  0.11990928  0.76393299  0.41686395     0.18500
N1790       N  0.06477651  0.73864960  0.43310354    -0.88300
H1791       H  0.15666266  0.85625503  0.46110038     0.35800
H1792       H  0.17934862  0.82095448  0.46828902     0.40900
H1793       H  0.06529299  0.71567712  0.44105240     0.40500
H1794       H  0.07201961  0.73190710  0.41923893     0.35400
C1795       C  0.39498029  0.79969872  0.45682160    -0.26300
C1796       C  0.40923552  0.76775953  0.45173097    -0.14400
C1797       C  0.39668892  0.74884780  0.43585280     0.36300
C1798       C  0.36936776  0.76211029  0.42588823    -0.25700
C1799       C  0.35437623  0.79377754  0.43139021    -0.15000
C1800       C  0.36793015  0.81286300  0.44694167     0.37300
N1801       N  0.35422796  0.84558771  0.45305408    -0.89200
H1802       H  0.40459392  0.81431287  0.46892671     0.18500
H1803       H  0.35951248  0.74715596  0.41400786     0.18500
N1804       N  0.41024505  0.71585984  0.42981850    -0.88300
H1805       H  0.37277569  0.86457839  0.45241060     0.35800
H1806       H  0.34688190  0.84326637  0.46729017     0.40900
H1807       H  0.42993225  0.70838493  0.43840254     0.40500
H1808       H  0.41980044  0.71911993  0.41608384     0.35400
C1809       C  0.08838064  0.54370803  0.55128882    -0.26300
C1810       C  0.08264692  0.50785493  0.55262870    -0.14400
C1811       C  0.10317983  0.48741627  0.56442514     0.36300
C1812       C  0.13005258  0.50348794  0.57378877    -0.25700
C1813       C  0.13627980  0.53949497  0.57192567    -0.15000
C1814       C  0.11429704  0.55973327  0.56105077     0.37300
N1815       N  0.11713372  0.59692726  0.56038242    -0.89200
H1816       H  0.07225466  0.55961036  0.54263471     0.18500
H1817       H  0.14638825  0.48764208  0.58230715     0.18500
N1818       N  0.09787941  0.45059687  0.56696379    -0.88300
H1819       H  0.09486635  0.60725026  0.56538917     0.35800
H1820       H  0.11989008  0.60421446  0.54613963     0.40900
H1821       H  0.07716900  0.44189989  0.55946569     0.40500
H1822       H  0.09275999  0.44663891  0.58140426     0.35400
C1823       C  0.39055431  0.49733240  0.56240388    -0.26300
C1824       C  0.40642995  0.51932047  0.54936424    -0.14400
C1825       C  0.39579673  0.55405084  0.54743416     0.36300
C1826       C  0.36886828  0.56585915  0.55792846    -0.25700
C1827       C  0.35154270  0.54370508  0.57033174    -0.15000
C1828       C  0.36322114  0.50917302  0.57295346     0.37300
N1829       N  0.34747811  0.48531280  0.58569793    -0.89200
H1830       H  0.39891199  0.47064499  0.56399644     0.18500
H1831       H  0.36126358  0.59261272  0.55596201     0.18500
N1832       N  0.41159560  0.57772720  0.53457353    -0.88300
H1833       H  0.32285922  0.48230304  0.58159820     0.35800
H1834       H  0.34836479  0.49589388  0.59948668     0.40900
H1835       H  0.43638714  0.58016359  0.53841440     0.40500
H1836       H  0.41033001  0.56726107  0.52077264     0.35400
C1837       C  0.08325316  0.94045077  0.44768555    -0.26300
C1838       C  0.08071491  0.97225022  0.45760367    -0.14400
C1839       C  0.10440489  0.99868851  0.45462678     0.36300
C1840       C  0.13206689  0.99150757  0.44308272    -0.25700
C1841       C  0.13602598  0.95851098  0.43453405    -0.15000
C1842       C  0.11055516  0.93334090  0.43615732     0.37300
N1843       N  0.11172529  0.90038601  0.42628347    -0.89200
H1844       H  0.06453078  0.92048426  0.44956343     0.18500
H1845       H  0.15143805  0.01089108  0.44166957     0.18500
N1846       N  0.10082071  0.03206501  0.46395069    -0.88300
H1847       H  0.13149423  0.88575365  0.43133923     0.35800
H1848       H  0.11533024  0.90508294  0.41177771     0.40900
H1849       H  0.07944301  0.04363816  0.45862200     0.40500
H1850       H  0.12182465  0.54598212  0.46444741     0.35400
C1851       C  0.38193843  0.94071727  0.43251670    -0.26300
C1852       C  0.35712794  0.96423048  0.42721132    -0.14400
C1853       C  0.36054703  0.99992176  0.43222940     0.36300
C1854       C  0.38724352  0.01074902  0.44361708    -0.25700
C1855       C  0.41078105  0.98661060  0.44992955    -0.15000
C1856       C  0.40863235  0.95149241  0.44369580     0.37300
N1857       N  0.43243642  0.92592309  0.44924578    -0.89200
H1858       H  0.37985547  0.91334264  0.42856916     0.18500
H1859       H  0.38884976  0.03778049  0.44827738     0.18500
N1860       N  0.33639121  0.02523606  0.42693712    -0.88300
H1861       H  0.43309177  0.92498273  0.46412713     0.35800
H1862       H  0.45562230  0.93379966  0.44432001     0.40900
H1863       H  0.31350552  0.01745902  0.43235599     0.40500
H1864       H  0.33498880  0.02558157  0.41206010     0.35400
N1865       N  0.94446409  0.48781797  0.50747195    -0.36600
N1866       N  0.49330304  0.49278761  0.47320686    -0.57100
N1867       N  0.54463018  0.00457223  0.50011841    -0.36600
N1868       N  0.49285512  0.00732811  0.52938700    -0.57100
C1869       C  0.92464619  0.47794816  0.49283969     0.27000
C1870       C  0.92388887  0.97702072  0.52077798     0.27000
C1871       C  0.56045165  0.48630937  0.48714069     0.27000
C1872       C  0.56309856  0.99997952  0.51600939     0.27000
C1873       C  0.96665354  0.47815255  0.46674247     0.35600
C1874       C  0.51979295  0.49821710  0.46192288     0.35600
C1875       C  0.96487001  0.99064192  0.54606116     0.35600
C1876       C  0.51951328  0.01149560  0.54078794     0.35600
C1877       C  0.89294603  0.47221751  0.49966657    -0.21900
C1878       C  0.89289330  0.96552149  0.51525370    -0.21900
C1879       C  0.58963906  0.47160604  0.49350856    -0.21900
C1880       C  0.59466245  0.98982220  0.51063136    -0.21900
C1881       C  0.97595672  0.48037001  0.44777230    -0.22900
C1882       C  0.50971774  0.50597748  0.44357442    -0.22900
C1883       C  0.97388976  0.00348575  0.56383530    -0.22900
C1884       C  0.50936423  0.02039415  0.55911569    -0.22900
C1885       C  0.93374321  0.47619367  0.47331939    -0.18300
C1886       C  0.93212996  0.98817577  0.53938734    -0.18300
C1887       C  0.55292771  0.00693418  0.53511334    -0.18300
C1888       C  0.55262246  0.49265574  0.46780018    -0.18300
H1889       H  0.87132443  0.46477009  0.49154896     0.14600
H1890       H  0.87167275  0.96110567  0.52431571     0.14600
H1891       H  0.60980184  0.46157063  0.48494920     0.14600
H1892       H  0.61563095  0.98488979  0.51967689     0.14600
H1893       H  0.95997293  0.48190242  0.43546966     0.12900
H1894       H  0.52513037  0.51100320  0.43128120     0.12900
H1895       H  0.95781520  0.01302952  0.57506340     0.12900
H1896       H  0.52461757  0.02468821  0.57156312     0.12900
H1897       H  0.96781791  0.49800400  0.50631602     0.26200
H1898       H  0.52176015  0.01581353  0.49970762     0.26200
N1899       N  0.54229133  0.23052113  0.50007287    -0.36600
N1900       N  0.99195525  0.23491741  0.53190648    -0.57100
N1901       N  0.94223419  0.24803369  0.50358593    -0.36600
N1902       N  0.99180347  0.25996411  0.47453436    -0.57100
C1903       C  0.55965332  0.23121309  0.51654103     0.27000
C1904       C  0.56111601  0.24621829  0.48671122     0.27000
C1905       C  0.92410547  0.23234328  0.51726256     0.27000
C1906       C  0.92406342  0.24748196  0.48747776     0.27000
C1907       C  0.51662751  0.20817802  0.53794950     0.35600
C1908       C  0.96521224  0.23533951  0.54329967     0.35600
C1909       C  0.52091833  0.24532090  0.45986873     0.35600
C1910       C  0.96518908  0.27349509  0.46575839     0.35600
C1911       C  0.58991607  0.24716846  0.51360297    -0.21900
C1912       C  0.59075327  0.25692390  0.49481590    -0.21900
C1913       C  0.89408389  0.22160038  0.50971994    -0.21900
C1914       C  0.89405509  0.23122556  0.49089072    -0.21900
C1915       C  0.50527492  0.18962994  0.55350890    -0.22900
C1916       C  0.97456904  0.23693983  0.56227953    -0.22900
C1917       C  0.51248577  0.24611955  0.44071961    -0.22900
C1918       C  0.97495274  0.29478043  0.45090099    -0.22900
C1919       C  0.54989554  0.21531887  0.53373304    -0.18300
C1920       C  0.55319047  0.24928018  0.46715485    -0.18300
C1921       C  0.93234209  0.26511399  0.47056087    -0.18300
C1922       C  0.93290592  0.23015388  0.53668100    -0.18300
H1923       H  0.60945519  0.25112539  0.52389961     0.14600
H1924       H  0.61118308  0.26987683  0.48784242     0.14600
H1925       H  0.87392775  0.20896803  0.51711898     0.14600
H1926       H  0.87391419  0.22754634  0.48095784     0.14600
H1927       H  0.51987169  0.17674610  0.56425184     0.12900
H1928       H  0.95868700  0.23664508  0.57470217     0.12900
H1929       H  0.52907969  0.24732009  0.42862991     0.12900
H1930       H  0.95927138  0.30894757  0.44120366     0.12900
H1931       H  0.52068849  0.21649758  0.49756529     0.26200
H1932       H  0.96356782  0.26268975  0.50573457     0.26200
C1933       C  0.81827547  0.44758633  0.42850849     0.42500
N1934       N  0.77866569  0.43920423  0.40869904     0.01400
C1935       C  0.67909623  0.29152324  0.40734073    -0.06500
H1936       H  0.81088025  0.27173395  0.40241592     0.06900
C1937       C  0.80383700  0.32983562  0.33845911    -0.06900
Co1938     Co  0.73869365  0.37691066  0.42013913     0.74200
N1939       N  0.77657031  0.31395759  0.40729703    -0.26000
Co1940     Co  0.74280981  0.31289082  0.38491562     0.74100
C1941       C  0.81653655  0.29573957  0.34406197     0.42600
N1942       N  0.78201989  0.41654986  0.35202379     0.01000
N1943       N  0.78051405  0.31356159  0.36461012     0.01100
N1944       N  0.67662047  0.33520275  0.42927787    -0.46900
H1945       H  0.80226732  0.40132820  0.44686853     0.06800
N1946       N  0.77420519  0.33797842  0.42081570     0.01400
N1947       N  0.70933222  0.31324035  0.36250124     0.01100
C1948       C  0.67691103  0.29449901  0.34032689     0.42700
N1949       N  0.78196658  0.44030840  0.36578761    -0.25500
C1950       C  0.67881089  0.42352599  0.43063699    -0.06400
N1951       N  0.80458078  0.45969146  0.41222127    -0.46600
N1952       N  0.69040148  0.28658654  0.35732719    -0.46800
C1953       C  0.66536978  0.45629277  0.42382514     0.42500
N1954       N  0.70244997  0.33872117  0.41790461     0.01400
N1955       N  0.71041911  0.44157432  0.36381512    -0.25500
N1956       N  0.77516626  0.41460598  0.42160858    -0.26000
N1957       N  0.71094948  0.41730827  0.35030499     0.01000
H1958       H  0.68714614  0.49196963  0.36560756     0.06900
H1959       H  0.68914916  0.34166119  0.32157824     0.06900
N1960       N  0.70446122  0.31367773  0.40488689    -0.26100
N1961       N  0.78156745  0.33849467  0.35176602    -0.25700
N1962       N  0.70628845  0.44181140  0.40622212     0.01400
C1963       C  0.81652866  0.30795644  0.42880517     0.42800
C1964       C  0.80324448  0.46575821  0.36114974    -0.06900
N1965       N  0.70995325  0.33828438  0.34969808    -0.25700
H1966       H  0.80676895  0.34288847  0.32494495     0.06900
N1967       N  0.79747592  0.33529535  0.43384810    -0.46900
H1968       H  0.80459728  0.49100280  0.36818371     0.06900
C1969       C  0.67725823  0.45605933  0.33983134     0.42600
C1970       C  0.79881925  0.41795099  0.43465894    -0.06400
Co1971     Co  0.74448039  0.44149037  0.38617233     0.73800
N1972       N  0.80183933  0.42501715  0.33777547    -0.46600
C1973       C  0.66044049  0.30631824  0.42330720     0.42900
N1974       N  0.68329292  0.46615329  0.40854183    -0.46600
Co1975     Co  0.74603632  0.37761399  0.35072057     0.73900
C1976       C  0.69000226  0.32891049  0.33526436    -0.06900
C1977       C  0.80265892  0.29356508  0.41107998    -0.06500
N1978       N  0.70402694  0.41663555  0.41889741    -0.26000
N1979       N  0.80070588  0.28741308  0.36040751    -0.46800
H1980       H  0.67431914  0.26815938  0.39898485     0.06900
C1981       C  0.68957979  0.46683511  0.35856373    -0.06900
Cl1982     Cl  0.74295308  0.37726522  0.38545205    -0.49900
C1983       C  0.81633597  0.45575846  0.34242737     0.42600
H1984       H  0.67137978  0.40802560  0.44272971     0.06800
N1985       N  0.69211652  0.42536311  0.33560178    -0.46600
C1986       C  0.82073887  0.04546833  0.58064953     0.42500
N1987       N  0.77930317  0.05593486  0.59900100     0.01400
C1988       C  0.67945949  0.20172113  0.59812243    -0.06500
H1989       H  0.81284389  0.22513365  0.60838148     0.06900
C1990       C  0.79897790  0.16660599  0.67105932    -0.06900
Co1991     Co  0.74381196  0.11997061  0.58669454     0.74200
N1992       N  0.77946960  0.18272886  0.60155091    -0.26000
Co1993     Co  0.74291148  0.18319673  0.62242766     0.74100
C1994       C  0.81154125  0.20134601  0.66616247     0.42600
N1995       N  0.77813798  0.07775091  0.65534380     0.01000
N1996       N  0.77849648  0.18258064  0.64411794     0.01100
N1997       N  0.68328312  0.15991342  0.57541482    -0.46900
H1998       H  0.80899156  0.09320051  0.56208200     0.06800
N1999       N  0.77979534  0.15829687  0.58816635     0.01400
N2000       N  0.70709973  0.18202828  0.64352255     0.01100
C2001       C  0.67238540  0.19992061  0.66471194     0.42700
N2002       N  0.77791592  0.05419617  0.64146606    -0.25500
C2003       C  0.68349122  0.07700084  0.57340970    -0.06400
N2004       N  0.80391236  0.03365169  0.59604166    -0.46600
N2005       N  0.68688331  0.20793225  0.64796488    -0.46800
C2006       C  0.66592201  0.04609006  0.57977930     0.42500
N2007       N  0.70802383  0.15816719  0.58748563     0.01400
N2008       N  0.70637574  0.05520672  0.64137756    -0.25500
N2009       N  0.77922038  0.08142251  0.58650676    -0.26000
N2010       N  0.70656921  0.07964160  0.65477958     0.01000
H2011       H  0.68084931  0.00592536  0.63907835     0.06900
H2012       H  0.68365001  0.15282411  0.68379249     0.06900
N2013       N  0.70671405  0.18227393  0.60098040    -0.26100
N2014       N  0.77884494  0.15717214  0.65672048    -0.25700
N2015       N  0.70657009  0.05617103  0.59860559     0.01400
C2016       C  0.82305119  0.18857375  0.58269260     0.42800
C2017       C  0.79840582  0.02822704  0.64601288    -0.06900
N2018       N  0.70728838  0.15725930  0.65644653    -0.25700
H2019       H  0.80018450  0.15365709  0.68468106     0.06900
N2020       N  0.80542884  0.16080469  0.57662973    -0.46900
H2021       H  0.79973407  0.00332092  0.63862174     0.06900
C2022       C  0.67005450  0.04296450  0.66437621     0.42600
C2023       C  0.80409456  0.07693727  0.57428966    -0.06400
Co2024     Co  0.74249498  0.05449538  0.62009060     0.73800
N2025       N  0.79738470  0.06838868  0.66966676    -0.46600
C2026       C  0.66368316  0.18648062  0.58094219     0.42900
N2027       N  0.68158792  0.03422500  0.59548008    -0.46600
Co2028     Co  0.74286990  0.11786896  0.65608150     0.73900
C2029       C  0.68595266  0.16603734  0.67028587    -0.06900
C2030       C  0.80594139  0.20342446  0.59923187    -0.06500
N2031       N  0.70789840  0.08138115  0.58593448    -0.26000
N2032       N  0.79730256  0.20938662  0.64933838    -0.46800
H2033       H  0.67170275  0.22291772  0.60733106     0.06900
C2034       C  0.68378276  0.03105223  0.64607788    -0.06900
Cl2035     Cl  0.74310392  0.11886045  0.62137467    -0.49900
C2036       C  0.81133000  0.03741915  0.66482495     0.42600
H2037       H  0.67862604  0.09345701  0.56129263     0.06800
N2038       N  0.68518767  0.07344714  0.66854805    -0.46600
N2039       N  0.79432711  0.49803961  0.00292454    -0.36600
N2040       N  0.74356952  0.48930544  0.03182436    -0.57100
N2041       N  0.69346140  0.49672757  0.00261000    -0.36600
N2042       N  0.74226822  0.01333401  0.97302299    -0.57100
C2043       C  0.81270230  0.48638029  0.01766999     0.27000
C2044       C  0.81196351  0.00605933  0.98635055     0.27000
C2045       C  0.67463946  0.48540096  0.01731205     0.27000
C2046       C  0.67370609  0.00205495  0.98680636     0.27000
C2047       C  0.77014033  0.48979124  0.04338031     0.35600
C2048       C  0.71671777  0.48929279  0.04323426     0.35600
C2049       C  0.76889811  0.02447844  0.96304479     0.35600
C2050       C  0.71509337  0.02372447  0.96337472     0.35600
C2051       C  0.84376264  0.47704886  0.01105588    -0.21900
C2052       C  0.84426589  0.48340504  0.99183670    -0.21900
C2053       C  0.64349085  0.47655574  0.01059448    -0.21900
C2054       C  0.64289502  0.98849771  0.99124140    -0.21900
C2055       C  0.76016483  0.49051623  0.06229502    -0.22900
C2056       C  0.72624539  0.49014064  0.06220373    -0.22900
C2057       C  0.75858634  0.04115425  0.94664475    -0.22900
C2058       C  0.72451867  0.04080858  0.94689868    -0.22900
C2059       C  0.80296148  0.48524518  0.03709587    -0.18300
C2060       C  0.80230107  0.01877960  0.96831500    -0.18300
C2061       C  0.68199897  0.01719961  0.96912003    -0.18300
C2062       C  0.68412691  0.48397654  0.03676418    -0.18300
H2063       H  0.86424316  0.46715913  0.01925777     0.14600
H2064       H  0.86428092  0.99158044  0.98109050     0.14600
H2065       H  0.62258191  0.46728620  0.01874662     0.14600
H2066       H  0.62182755  0.98579092  0.98188335     0.14600
H2067       H  0.77570160  0.49006619  0.07482061     0.12900
H2068       H  0.71044172  0.48938470  0.07465243     0.12900
H2069       H  0.77399358  0.05259093  0.93572084     0.12900
H2070       H  0.70852907  0.05182364  0.93619192     0.12900
H2071       H  0.77168720  0.51044205  0.00392581     0.26200
H2072       H  0.71628575  0.50878749  0.00365905     0.26200
N2073       N  0.69037974  0.26268045  0.00061069    -0.36600
N2074       N  0.74049553  0.26673801  0.02990419    -0.57100
N2075       N  0.78958982  0.25807753  0.00062112    -0.36600
N2076       N  0.73898082  0.25622623  0.97063103    -0.57100
C2077       C  0.67270736  0.27473726  0.01563315     0.27000
C2078       C  0.67183084  0.26733235  0.98486834     0.27000
C2079       C  0.80862436  0.26790752  0.01562346     0.27000
C2080       C  0.80770055  0.26265411  0.98461107     0.27000
C2081       C  0.71357670  0.26373328  0.04111129     0.35600
C2082       C  0.76686467  0.26094378  0.04113941     0.35600
C2083       C  0.71181265  0.24564327  0.96091082     0.35600
C2084       C  0.76552637  0.24485565  0.96065884     0.35600
C2085       C  0.64283117  0.28788301  0.00931469    -0.21900
C2086       C  0.64223620  0.28307767  0.98987937    -0.21900
C2087       C  0.83908442  0.27912832  0.00901553    -0.21900
C2088       C  0.83859322  0.27555516  0.98948643    -0.21900
C2089       C  0.72279561  0.25618632  0.05962686    -0.22900
C2090       C  0.75668335  0.25437336  0.05964094    -0.22900
C2091       C  0.72112860  0.22785839  0.94447248    -0.22900
C2092       C  0.75521005  0.22768354  0.94420374    -0.22900
C2093       C  0.68108653  0.27007360  0.03498148    -0.18300
C2094       C  0.67898643  0.25314984  0.96667451    -0.18300
C2095       C  0.79879075  0.25061224  0.96618630    -0.18300
C2096       C  0.79990187  0.26499196  0.03514607    -0.18300
H2097       H  0.62293272  0.29841761  0.01791278     0.14600
H2098       H  0.62181739  0.28917606  0.98057339     0.14600
H2099       H  0.85982360  0.28825251  0.01739890     0.14600
H2100       H  0.85901352  0.28103866  0.98001013     0.14600
H2101       H  0.70682843  0.25285405  0.07186709     0.12900
H2102       H  0.77209438  0.24947064  0.07190274     0.12900
H2103       H  0.70508663  0.21634840  0.93380037     0.12900
H2104       H  0.77060978  0.21592776  0.93328377     0.12900
H2105       H  0.71132891  0.24700051  0.00139196     0.26200
H2106       H  0.76734152  0.24442590  0.00136657     0.26200
C2107       C  0.91405326  0.05802784  0.92184880     0.42500
N2108       N  0.93412610  0.08959508  0.89965053     0.01400
C2109       C  0.57284147  0.08597949  0.84753499    -0.06500
H2110       H  0.59853088  0.11753954  0.91673073     0.06900
C2111       C  0.53266319  0.22411269  0.91582764    -0.06900
Co2112     Co  0.99896410  0.06697850  0.88392185     0.74200
N2113       N  0.55318744  0.10216445  0.90317396    -0.26000
Co2114     Co  0.55019630  0.13750551  0.88099228     0.74100
C2115       C  0.56564527  0.21311329  0.92223740     0.42600
N2116       N  0.94932761  0.19118961  0.90130939     0.01000
N2117       N  0.54829840  0.17729536  0.90099628     0.01100
N2118       N  0.53706000  0.04193282  0.85274037    -0.46900
H2119       H  0.96036786  0.02253545  0.92177370     0.06800
N2120       N  0.53254610  0.07580120  0.90562170     0.01400
N2121       N  0.54570430  0.17569080  0.85974461     0.01100
C2122       C  0.55382457  0.21367496  0.83782427     0.42700
N2123       N  0.92896424  0.16457899  0.89872646    -0.25500
C2124       C  0.96329909  0.03644160  0.84864259    -0.06400
N2125       N  0.90807158  0.08523148  0.91059502    -0.46600
N2126       N  0.56647562  0.18435058  0.84580293    -0.46800
C2127       C  0.93462463  0.04476702  0.83720475     0.42500
N2128       N  0.53134721  0.06852989  0.86436445     0.01400
N2129       N  0.93573748  0.16531398  0.85770419    -0.25500
N2130       N  0.95818211  0.06722843  0.90297647    -0.26000
N2131       N  0.95623584  0.19188528  0.86002105     0.01000
H2132       H  0.89390794  0.15780549  0.83893650     0.06900
H2133       H  0.50889593  0.24575058  0.84729711     0.06900
N2134       N  0.55162400  0.09504537  0.86163432    -0.26100
N2135       N  0.52364660  0.19969659  0.90272275    -0.25700
N2136       N  0.94129030  0.08477051  0.85863636     0.01400
C2137       C  0.57019878  0.06955517  0.92699904     0.42800
C2138       C  0.90280527  0.16819393  0.91001319    -0.06900
N2139       N  0.52146444  0.19844377  0.86154856    -0.25700
H2140       H  0.51917390  0.24767754  0.91930440     0.06900
N2141       N  0.54271927  0.05450727  0.91934232    -0.46900
H2142       H  0.88129426  0.15140354  0.90993656     0.06900
C2143       C  0.92679703  0.20691612  0.83621839     0.42600
C2144       C  0.94740385  0.04530650  0.91674556    -0.06400
Co2145     Co  0.93476660  0.12598808  0.87829811     0.73800
N2146       N  0.93712433  0.21449158  0.91372833    -0.46600
C2147       C  0.56284743  0.05026474  0.84151227     0.42900
N2148       N  0.92151332  0.07466250  0.84448326    -0.46600
Co2149     Co  0.98971177  0.19521417  0.88221306     0.73900
C2150       C  0.52439676  0.22289993  0.84837567    -0.06900
C2151       C  0.57704761  0.10073549  0.91618533    -0.06500
N2152       N  0.96528484  0.06218610  0.86160930    -0.26000
N2153       N  0.57328935  0.18421622  0.91238135    -0.46800
H2154       H  0.59320830  0.10199204  0.84284696     0.06900
C2155       C  0.91528367  0.17291239  0.84319679    -0.06900
Cl2156     Cl  0.99453553  0.13110376  0.88158758    -0.49900
C2157       C  0.90796019  0.20090564  0.91997417     0.42600
H2158       H  0.97871560  0.01342371  0.84813650     0.06800
N2159       N  0.95191014  0.21687979  0.84746188    -0.46600
N2160       N  0.60665145  0.37605412  0.77818056    -0.36600
N2161       N  0.61719207  0.42903003  0.74982349    -0.57100
N2162       N  0.62950477  0.37446767  0.72132660    -0.36600
N2163       N  0.62181572  0.32163590  0.75040335    -0.57100
C2164       C  0.60731035  0.40487212  0.78952866     0.27000
C2165       C  0.60801565  0.34780987  0.78957694     0.27000
C2166       C  0.64054149  0.40331839  0.71232679     0.27000
C2167       C  0.64386409  0.34652224  0.71276472     0.27000
C2168       C  0.60455037  0.44927178  0.76393420     0.35600
C2169       C  0.61560816  0.44801386  0.73372256     0.35600
C2170       C  0.60877116  0.30171963  0.76430691     0.35600
C2171       C  0.62300281  0.30117750  0.73463372     0.35600
C2172       C  0.60925376  0.39476142  0.80843504    -0.21900
C2173       C  0.60947104  0.35870256  0.80846604    -0.21900
C2174       C  0.66225266  0.39362397  0.69790225    -0.21900
C2175       C  0.66420387  0.35769565  0.69811780    -0.21900
C2176       C  0.59508397  0.48136016  0.75679671    -0.22900
C2177       C  0.60197985  0.48051598  0.73762647    -0.22900
C2178       C  0.60196809  0.26839639  0.75739826    -0.22900
C2179       C  0.61102874  0.26805536  0.73856086    -0.22900
C2180       C  0.60268517  0.43966387  0.78330644    -0.18300
C2181       C  0.60432302  0.31271763  0.78337687    -0.18300
C2182       C  0.63746891  0.31121721  0.71723852    -0.18300
C2183       C  0.62982241  0.43784384  0.71611215    -0.18300
H2184       H  0.60930864  0.41159081  0.82092753     0.14600
H2185       H  0.60983676  0.34235190  0.82097195     0.14600
H2186       H  0.67497450  0.41064004  0.68805899     0.14600
H2187       H  0.67877690  0.34162955  0.68852818     0.14600
H2188       H  0.58578297  0.00525964  0.76873916     0.12900
H2189       H  0.59644986  0.00308659  0.73156344     0.12900
H2190       H  0.59183332  0.24651207  0.76515175     0.12900
H2191       H  0.60930472  0.24588689  0.72890785     0.12900
H2192       H  0.60072908  0.37543310  0.76379274     0.26200
H2193       H  0.61043713  0.37371631  0.73127956     0.26200
N2194       N  0.85512457  0.32210264  0.75537480    -0.36600
N2195       N  0.84157766  0.37403677  0.72668967    -0.57100
N2196       N  0.85529261  0.42892789  0.75482070    -0.36600
N2197       N  0.86533455  0.37706684  0.78435084    -0.57100
C2198       C  0.84426505  0.30097172  0.74108755     0.27000
C2199       C  0.85701769  0.30257289  0.77129209     0.27000
C2200       C  0.84202941  0.44806047  0.74063105     0.27000
C2201       C  0.85668439  0.44963515  0.77056634     0.27000
C2202       C  0.84163409  0.34530689  0.71528041     0.35600
C2203       C  0.84109763  0.40203275  0.71508175     0.35600
C2204       C  0.87575864  0.34902710  0.79426903     0.35600
C2205       C  0.87649745  0.40573036  0.79383355     0.35600
C2206       C  0.83939128  0.26753585  0.74802030    -0.21900
C2207       C  0.84757429  0.26849736  0.76701695    -0.21900
C2208       C  0.83473629  0.48128898  0.74753278    -0.21900
C2209       C  0.84424759  0.48234941  0.76637010    -0.21900
C2210       C  0.84072430  0.35508182  0.69632593    -0.22900
C2211       C  0.84060829  0.39096878  0.69618732    -0.22900
C2212       C  0.89250640  0.35999495  0.81048963    -0.22900
C2213       C  0.89306701  0.39588730  0.81017731    -0.22900
C2214       C  0.84067110  0.31036265  0.72171119    -0.18300
C2215       C  0.87036926  0.31360794  0.78899530    -0.18300
C2216       C  0.87151681  0.44071215  0.78809878    -0.18300
C2217       C  0.83891907  0.43735524  0.72126671    -0.18300
H2218       H  0.83153028  0.24455136  0.74012811     0.14600
H2219       H  0.84731143  0.24632532  0.77647679     0.14600
H2220       H  0.83496443  0.00128759  0.73933997     0.14600
H2221       H  0.85506764  0.00326831  0.77503990     0.14600
H2222       H  0.84007579  0.33813814  0.68388562     0.12900
H2223       H  0.83989317  0.40703597  0.68358206     0.12900
H2224       H  0.90355235  0.34382546  0.82131221     0.12900
H2225       H  0.90455918  0.41276618  0.82071842     0.12900
H2226       H  0.86471905  0.34703393  0.75388648     0.26200
H2227       H  0.86691480  0.40496232  0.75320021     0.26200
N2228       N  0.64796827  0.12460742  0.27741598    -0.36600
N2229       N  0.63134610  0.17864026  0.25014566    -0.57100
N2230       N  0.61549927  0.12528820  0.22197589    -0.36600
N2231       N  0.62954829  0.07140293  0.24993033    -0.57100
C2232       C  0.64608499  0.15298973  0.28903301     0.27000
C2233       C  0.64718718  0.09596917  0.28861597     0.27000
C2234       C  0.60339288  0.15408458  0.21342124     0.27000
C2235       C  0.60073580  0.09721997  0.21373790     0.27000
C2236       C  0.64459221  0.19883229  0.26408126     0.35600
C2237       C  0.62893688  0.19896210  0.23454951     0.35600
C2238       C  0.64368989  0.05073577  0.26310658     0.35600
C2239       C  0.62452686  0.05112310  0.23433627     0.35600
C2240       C  0.64411953  0.14220321  0.30783813    -0.21900
C2241       C  0.64517054  0.10625547  0.30758346    -0.21900
C2242       C  0.58112065  0.14420428  0.19938493    -0.21900
C2243       C  0.57930853  0.10833454  0.19965225    -0.21900
C2244       C  0.65080461  0.23212515  0.25726005    -0.22900
C2245       C  0.64079645  0.23221858  0.23854720    -0.22900
C2246       C  0.64753414  0.01715053  0.25587985    -0.22900
C2247       C  0.63558531  0.01745345  0.23760218    -0.22900
C2248       C  0.64871599  0.18829504  0.28321975    -0.18300
C2249       C  0.65005129  0.06096081  0.28213845    -0.18300
C2250       C  0.60742615  0.06179712  0.21786455    -0.18300
C2251       C  0.61263636  0.18898471  0.21756204    -0.18300
H2252       H  0.64269186  0.15855656  0.32048817     0.14600
H2253       H  0.64463238  0.08966594  0.31998684     0.14600
H2254       H  0.56744799  0.16107936  0.18997318     0.14600
H2255       H  0.56400004  0.09227563  0.19044983     0.14600
H2256       H  0.66090812  0.25423652  0.26503546     0.12900
H2257       H  0.64135878  0.25443350  0.22911024     0.12900
H2258       H  0.64875231  0.49128863  0.26487470     0.12900
H2259       H  0.62792429  0.49191226  0.22934326     0.12900
H2260       H  0.65346502  0.12481479  0.26293697     0.26200
H2261       H  0.63509252  0.12470054  0.23150289     0.26200
N2262       N  0.87480844  0.07330663  0.25530414    -0.36600
N2263       N  0.85863086  0.12610078  0.28389944    -0.57100
N2264       N  0.86855898  0.18000394  0.25549510    -0.36600
N2265       N  0.88735634  0.12698992  0.22754409    -0.57100
C2266       C  0.87438969  0.05373790  0.27124901     0.27000
C2267       C  0.88979447  0.05423495  0.24144765     0.27000
C2268       C  0.86613525  0.19973317  0.27153623     0.27000
C2269       C  0.88257214  0.20018653  0.24195766     0.27000
C2270       C  0.84919305  0.09725959  0.29348111     0.35600
C2271       C  0.84613510  0.15374385  0.29360646     0.35600
C2272       C  0.88915182  0.09878503  0.21587921     0.35600
C2273       C  0.88674397  0.15522793  0.21618044     0.35600
C2274       C  0.88928130  0.02180368  0.26750803    -0.21900
C2275       C  0.89890807  0.02206695  0.24867386    -0.21900
C2276       C  0.87818562  0.23302644  0.26807615    -0.21900
C2277       C  0.88874750  0.23325958  0.24942785    -0.21900
C2278       C  0.83099191  0.10666975  0.30948022    -0.22900
C2279       C  0.82911329  0.14249516  0.30957575    -0.22900
C2280       C  0.88992079  0.10916398  0.19699681    -0.22900
C2281       C  0.88834827  0.14497737  0.19719050    -0.22900
C2282       C  0.85818299  0.06267884  0.28849320    -0.18300
C2283       C  0.89292335  0.06408899  0.22212962    -0.18300
C2284       C  0.88831047  0.19013841  0.22278375    -0.18300
C2285       C  0.85155570  0.18907377  0.28886426    -0.18300
H2286       H  0.88246341  0.49614608  0.27562796     0.14600
H2287       H  0.90355907  0.49612342  0.23994849     0.14600
H2288       H  0.87918621  0.25491458  0.27795211     0.14600
H2289       H  0.89945845  0.25539866  0.24215493     0.14600
H2290       H  0.82034930  0.08955405  0.32005383     0.12900
H2291       H  0.81677860  0.15843948  0.32022922     0.12900
H2292       H  0.89213815  0.09275408  0.18440850     0.12900
H2293       H  0.88907858  0.16160549  0.18479717     0.12900
H2294       H  0.86161981  0.09619620  0.25332821     0.26200
H2295       H  0.85790802  0.15558909  0.25334328     0.26200
C2296       C  0.91363579  0.43852768  0.08116653     0.42500
N2297       N  0.95618136  0.43080642  0.09879885     0.01400
C2298       C  0.55150801  0.27978715  0.09839194    -0.06500
H2299       H  0.92034256  0.26199251  0.10945644     0.06900
C2300       C  0.93541549  0.32875125  0.17215651    -0.06900
Co2301     Co  0.99130753  0.36518165  0.08739842     0.74200
N2302       N  0.95382246  0.30455345  0.10298871    -0.26000
Co2303     Co  0.99070518  0.30584898  0.12408302     0.74100
C2304       C  0.92138636  0.29457045  0.16729793     0.42600
N2305       N  0.95751452  0.41425905  0.15564102     0.01000
N2306       N  0.95575798  0.30997174  0.14554781     0.01100
N2307       N  0.54949864  0.31974240  0.07486630    -0.46900
H2308       H  0.92437152  0.38917255  0.06343757     0.06800
N2309       N  0.95431670  0.32762172  0.08912150     0.01400
N2310       N  0.52894675  0.30767568  0.14417717     0.01100
C2311       C  0.56591405  0.29226535  0.16444047     0.42700
N2312       N  0.95741938  0.43677796  0.14149734    -0.25500
C2313       C  0.55429093  0.40448576  0.07384792    -0.06400
N2314       N  0.93096463  0.45230544  0.09595761    -0.46600
N2315       N  0.54966314  0.28221557  0.14848549    -0.46800
C2316       C  0.57248510  0.43547846  0.07993801     0.42500
N2317       N  0.02635264  0.32586381  0.08877518     0.01400
N2318       N  0.53182078  0.43496377  0.14054066    -0.25500
N2319       N  0.95623447  0.40425261  0.08666574    -0.26000
N2320       N  0.53177052  0.41248281  0.15469589     0.01000
H2321       H  0.55551925  0.48484380  0.13695874     0.06900
H2322       H  0.55642602  0.34115643  0.18291813     0.06900
N2323       N  0.02628292  0.30305802  0.10273845    -0.26100
N2324       N  0.95647468  0.33604754  0.15798014    -0.25700
N2325       N  0.02933726  0.42934008  0.09872777     0.01400
C2326       C  0.91144407  0.29654593  0.08317611     0.42800
C2327       C  0.93667481  0.46280857  0.14601063    -0.06900
N2328       N  0.53015904  0.33388497  0.15654538    -0.25700
H2329       H  0.93413515  0.34277658  0.18560147     0.06900
N2330       N  0.92946006  0.32384063  0.07707861    -0.46900
H2331       H  0.93493333  0.48725500  0.13846653     0.06900
C2332       C  0.56672832  0.45213020  0.16342391     0.42600
C2333       C  0.93042481  0.40695427  0.07498956    -0.06400
Co2334     Co  0.99292001  0.43416952  0.11987933     0.73800
N2335       N  0.93808072  0.42401394  0.16990927    -0.46600
C2336       C  0.56625368  0.29136011  0.08050490     0.42900
N2337       N  0.55619492  0.44950856  0.09501366    -0.46600
Co2338     Co  0.99277909  0.37473231  0.15683606     0.73900
C2339       C  0.55269925  0.32649481  0.16983339    -0.06900
C2340       C  0.92751481  0.28339893  0.10037063    -0.06500
N2341       N  0.02824590  0.40280680  0.08658161    -0.26000
N2342       N  0.93552639  0.28463977  0.15070041    -0.46800
H2343       H  0.55868930  0.25860459  0.10758501     0.06900
C2344       C  0.55350384  0.46051984  0.14461211    -0.06900
Cl2345     Cl  0.99194268  0.37001416  0.12209406    -0.49900
C2346       C  0.92359057  0.45429603  0.16488515     0.42600
H2347       H  0.55924092  0.38660231  0.06216695     0.06800
N2348       N  0.55177954  0.42207934  0.16871485    -0.46600
C2349       C  0.93341774  0.02645116  0.20474019    -0.26300
C2350       C  0.90060870  0.03672082  0.20764276    -0.14400
C2351       C  0.87538559  0.02203986  0.19627203     0.36300
C2352       C  0.88341791  0.99676613  0.18234421    -0.25700
C2353       C  0.91516871  0.48114824  0.17925927    -0.15000
C2354       C  0.93975223  0.50302281  0.18707294     0.37300
N2355       N  0.97350574  0.49901119  0.18138341    -0.89200
H2356       H  0.95013543  0.54550841  0.20653532     0.18500
H2357       H  0.86417228  0.98527860  0.17358639     0.18500
N2358       N  0.84187061  0.03338898  0.19874676    -0.88300
H2359       H  0.98740525  0.49382121  0.19356486     0.35800
H2360       H  0.98167059  0.52276966  0.17581633     0.40900
H2361       H  0.83425400  0.02599914  0.21237728     0.40500
H2362       H  0.82636361  0.02049472  0.18906691     0.35400
C2363       C  0.87361305  0.24127970  0.20305643    -0.26300
C2364       C  0.89779452  0.21754171  0.20896531    -0.14400
C2365       C  0.93019026  0.21988414  0.20142840     0.36300
C2366       C  0.93714092  0.24523283  0.18775688    -0.25700
C2367       C  0.91286161  0.26869636  0.18179210    -0.15000
C2368       C  0.88092419  0.26699625  0.18952073     0.37300
N2369       N  0.85609755  0.29119491  0.18346837    -0.89200
H2370       H  0.84891645  0.23942734  0.20891358     0.18500
H2371       H  0.96184939  0.24687258  0.18186244     0.18500
N2372       N  0.95653224  0.19723658  0.20724395    -0.88300
H2373       H  0.83387810  0.28652530  0.19061367     0.35800
H2374       H  0.85162862  0.28642941  0.16899772     0.40900
H2375       H  0.94912922  0.18008470  0.21789970     0.40500
H2376       H  0.97483821  0.21300937  0.21333749     0.35400
C2377       C  0.60803201  0.03387719  0.18557310    -0.26300
C2378       C  0.59564280  0.03441826  0.20425236    -0.14400
C2379       C  0.57250193  0.00895741  0.20982474     0.36300
C2380       C  0.56154291  0.48232938  0.19491199    -0.25700
C2381       C  0.57799244  0.47900736  0.17734595    -0.15000
C2382       C  0.60368232  0.50253703  0.17289506     0.37300
N2383       N  0.62111238  0.49916513  0.15510541    -0.89200
H2384       H  0.62580169  0.05355534  0.18133638     0.18500
H2385       H  0.54161940  0.46450176  0.19829333     0.18500
N2386       N  0.55837166  0.00999680  0.22856289    -0.88300
H2387       H  0.63342446  0.47518340  0.15518080     0.35800
H2388       H  0.63926004  0.51851397  0.15399924     0.40900
H2389       H  0.56351502  0.98628052  0.23519864     0.40500
H2390       H  0.02589220  0.00961803  0.22566061     0.35400
C2391       C  0.56233603  0.26171904  0.19546547    -0.26300
C2392       C  0.57894511  0.26674588  0.17813067    -0.14400
C2393       C  0.60686527  0.24638545  0.17378715     0.36300
C2394       C  0.61818115  0.22173629  0.18699474    -0.25700
C2395       C  0.60152101  0.21675134  0.20433785    -0.15000
C2396       C  0.57302506  0.23664220  0.20841890     0.37300
N2397       N  0.55385474  0.23095246  0.22529615    -0.89200
H2398       H  0.54028796  0.27661836  0.19870467     0.18500
H2399       H  0.63971155  0.20611738  0.18361674     0.18500
N2400       N  0.62378627  0.25083354  0.15602659    -0.88300
H2401       H  0.05223957  0.23226439  0.23759461     0.35800
H2402       H  0.54627045  0.20480296  0.22539226     0.40900
H2403       H  0.62379311  0.22678666  0.14881728     0.40500
H2404       H  0.64826908  0.25756033  0.15899098     0.35400
C2405       C  0.55600830  0.99551274  0.82276042    -0.26300
C2406       C  0.57610871  0.02464522  0.82709009    -0.14400
C2407       C  0.60748551  0.02672648  0.81812474     0.36300
C2408       C  0.61603727  0.49251314  0.80345019    -0.25700
C2409       C  0.59306980  0.46705254  0.79751334    -0.15000
C2410       C  0.56032766  0.46922463  0.80412636     0.37300
N2411       N  0.04791261  0.45398463  0.79531807    -0.89200
H2412       H  0.53166794  0.99321320  0.82903026     0.18500
H2413       H  0.64118912  0.49119598  0.79823656     0.18500
N2414       N  0.62921419  0.05576595  0.82108936    -0.88300
H2415       H  0.05170636  0.42813729  0.79946203     0.35800
H2416       H  0.05126595  0.45546587  0.78056757     0.40900
H2417       H  0.63411792  0.05815307  0.83566107     0.40500
H2418       H  0.61750945  0.07832465  0.81628503     0.35400
C2419       C  0.54626495  0.25755058  0.81276754    -0.26300
C2420       C  0.56816179  0.23605676  0.82279576    -0.14400
C2421       C  0.60234040  0.23916924  0.81942030     0.36300
C2422       C  0.61376064  0.26444725  0.80643563    -0.25700
C2423       C  0.59163789  0.28672830  0.79710940    -0.15000
C2424       C  0.55738610  0.28273424  0.80005886     0.37300
N2425       N  0.04668829  0.31062955  0.79533509    -0.89200
H2426       H  0.51992279  0.25518503  0.81495694     0.18500
H2427       H  0.63996668  0.26720884  0.80375810     0.18500
N2428       N  0.62525893  0.21749800  0.82944045    -0.88300
H2429       H  0.03149017  0.29508118  0.78667979     0.35800
H2430       H  0.05811999  0.32850497  0.78633882     0.40900
H2431       H  0.62399090  0.22440072  0.84388545     0.40500
H2432       H  0.64940363  0.22276459  0.82503512     0.35400
C2433       C  0.88602381  0.50741676  0.82837403    -0.26300
C2434       C  0.91901391  0.02024604  0.82343375    -0.14400
C2435       C  0.93830993  0.00396563  0.80916490     0.36300
C2436       C  0.92471668  0.97736598  0.79772707    -0.25700
C2437       C  0.88525828  0.46960329  0.80019463    -0.15000
C2438       C  0.87024199  0.48142586  0.81734180     0.37300
N2439       N  0.83935319  0.46762857  0.82405222    -0.89200
H2440       H  0.87481905  0.51582359  0.84168941     0.18500
H2441       H  0.93982662  0.96502646  0.78682650     0.18500
N2442       N  0.97185564  0.01443534  0.80622215    -0.88300
H2443       H  0.84396125  0.45460531  0.83681568     0.35800
H2444       H  0.82957054  0.44918654  0.81457225     0.40900
H2445       H  0.97416537  0.02314264  0.79219631     0.40500
H2446       H  0.98661589  0.99226459  0.80760370     0.35400
C2447       C  0.87760109  0.24037357  0.82531159    -0.26300
C2448       C  0.91100334  0.23159521  0.82311698    -0.14400
C2449       C  0.93065292  0.25028487  0.81013674     0.36300
C2450       C  0.91670808  0.27674377  0.79922810    -0.25700
C2451       C  0.88358206  0.28590484  0.80150381    -0.15000
C2452       C  0.86373844  0.26790016  0.81476281     0.37300
N2453       N  0.83009086  0.27829516  0.81781171    -0.89200
H2454       H  0.86279496  0.22680912  0.83579465     0.18500
H2455       H  0.93197547  0.29063784  0.78907875     0.18500
N2456       N  0.96507300  0.24283665  0.80820886    -0.88300
H2457       H  0.81916080  0.26294540  0.82835269     0.35800
H2458       H  0.81706894  0.27333755  0.80523240     0.40900
H2459       H  0.97780762  0.26606682  0.81107131     0.40500
H2460       H  0.96968058  0.23585988  0.79400705     0.35400
C2461       C  0.65187594  0.30249886  0.06081583    -0.26300
C2462       C  0.65428346  0.27245367  0.04934255    -0.14400
C2463       C  0.62994275  0.24609823  0.05070040     0.36300
C2464       C  0.60239532  0.25149462  0.06237829    -0.25700
C2465       C  0.59888867  0.28264011  0.07282594    -0.15000
C2466       C  0.62467965  0.30766906  0.07283422     0.37300
N2467       N  0.62375201  0.33882255  0.08448262    -0.89200
H2468       H  0.67083575  0.32247413  0.06004253     0.18500
H2469       H  0.58278749  0.23217291  0.06244979     0.18500
N2470       N  0.63235857  0.21403056  0.04006996    -0.88300
H2471       H  0.64436113  0.33835241  0.09342071     0.35800
H2472       H  0.60333782  0.33904452  0.09356154     0.40900
H2473       H  0.65473670  0.20214054  0.04350678     0.40500
H2474       H  0.63252750  0.21963103  0.02552440     0.35400
C2475       C  0.85251086  0.24630722  0.05102403    -0.26300
C2476       C  0.82619547  0.27004242  0.04984958    -0.14400
C2477       C  0.82659665  0.30027998  0.06143027     0.36300
C2478       C  0.85400287  0.30756730  0.07301016    -0.25700
C2479       C  0.88090765  0.28467519  0.07360347    -0.15000
C2480       C  0.87995118  0.25337285  0.06282357     0.37300
N2481       N  0.90738846  0.22969585  0.06328253    -0.89200
H2482       H  0.85218064  0.22298241  0.04214174     0.18500
H2483       H  0.85471923  0.33180182  0.08113672     0.18500
N2484       N  0.79974994  0.32443018  0.06079484    -0.88300
H2485       H  0.92775770  0.24250868  0.05740055     0.35800
H2486       H  0.90277628  0.20787003  0.05458750     0.40900
H2487       H  0.80918691  0.34849806  0.05659059     0.40500
H2488       H  0.79028438  0.32727250  0.07460970     0.40200
C2489       C  0.61178406  0.25416767  0.92838782    -0.26300
C2490       C  0.58981793  0.22887576  0.93542732    -0.14400
C2491       C  0.59772307  0.21137628  0.95248360     0.36300
C2492       C  0.62774864  0.21852445  0.96159300    -0.25700
C2493       C  0.64998312  0.24352051  0.95451970    -0.15000
C2494       C  0.64146151  0.26200062  0.93788430     0.37300
N2495       N  0.66220391  0.28902212  0.93046816    -0.89200
H2496       H  0.60647962  0.26689405  0.91500363     0.18500
H2497       H  0.63355927  0.20484823  0.97462717     0.18500
N2498       N  0.57619951  0.18562723  0.96074187    -0.88300
H2499       H  0.68504978  0.27826233  0.92686039     0.35800
H2500       H  0.66582711  0.30782960  0.94116666     0.40900
H2501       H  0.55411724  0.18326753  0.95319623     0.40500
H2502       H  0.56969726  0.19453162  0.97437170     0.35400
C2503       C  0.86514204  0.19320610  0.94452308    -0.26300
C2504       C  0.88264054  0.21644707  0.93280785    -0.14400
C2505       C  0.87186543  0.25149750  0.93170696     0.36300
C2506       C  0.84380894  0.26223703  0.94211979    -0.25700
C2507       C  0.82626042  0.23854481  0.95359270    -0.15000
C2508       C  0.83745054  0.20382151  0.95486483     0.37300
N2509       N  0.82117891  0.17879847  0.96672585    -0.89200
H2510       H  0.87285327  0.16617330  0.94549441     0.18500
H2511       H  0.83579504  0.28917993  0.94139206     0.18500
N2512       N  0.88818675  0.27627209  0.91975430    -0.88300
H2513       H  0.79669946  0.17629238  0.96226298     0.35800
H2514       H  0.82134130  0.18808414  0.98078524     0.40900
H2515       H  0.88786698  0.26668882  0.90574542     0.40500
H2516       H  0.91272059  0.27839915  0.92417697     0.35400
C2517       C  0.63953758  0.49536658  0.06066103    -0.26300
C2518       C  0.65913019  0.47119911  0.05060297    -0.14400
C2519       C  0.65192545  0.43508615  0.05187970     0.36300
C2520       C  0.62422406  0.42431242  0.06214586    -0.25700
C2521       C  0.60357096  0.44844515  0.07143076    -0.15000
C2522       C  0.61189435  0.48422158  0.07117138     0.37300
N2523       N  0.59145689  0.50942696  0.08067303    -0.89200
H2524       H  0.64492804  0.52304881  0.05968631     0.18500
H2525       H  0.61849214  0.39668323  0.06248138     0.18500
N2526       N  0.67150589  0.40868771  0.04251262    -0.88300
H2527       H  0.58302404  0.52710975  0.07052140     0.35800
H2528       H  0.60607759  0.52319361  0.09046020     0.40900
H2529       H  0.69226689  0.41914266  0.03584048     0.40500
H2530       H  0.65698027  0.39717049  0.03185323     0.35400
C2531       C  0.85085465  0.49887422  0.05842226    -0.26300
C2532       C  0.82818869  0.47434716  0.05120439    -0.14400
C2533       C  0.83221323  0.43870294  0.05543390     0.36300
C2534       C  0.85924676  0.42801373  0.06618575    -0.25700
C2535       C  0.88289817  0.45219922  0.07272034    -0.15000
C2536       C  0.87841356  0.48809567  0.06909391     0.37300
N2537       N  0.90269734  0.51314339  0.07527405    -0.89200
H2538       H  0.84789088  0.52618748  0.05489114     0.18500
H2539       H  0.86240075  0.40036959  0.06887503     0.18500
N2540       N  0.80997118  0.41271603  0.04815079    -0.88300
H2541       H  0.89568672  0.53838415  0.07143271     0.35800
H2542       H  0.92456069  0.50775624  0.06787802     0.40900
H2543       H  0.78623138  0.41840033  0.05308357     0.40500
H2544       H  0.81000207  0.41384156  0.03325963     0.35400
C2545       C  0.63796540  0.06061625  0.96337620    -0.26300
C2546       C  0.65377125  0.02987307  0.95740543    -0.14400
C2547       C  0.63977212  0.00995962  0.94234409     0.36300
C2548       C  0.61095969  0.02175557  0.93324437    -0.25700
C2549       C  0.59570905  0.05306630  0.93901286    -0.15000
C2550       C  0.60933677  0.07235338  0.95431090     0.37300
N2551       N  0.59416792  0.10420022  0.96061326    -0.89200
H2552       H  0.64786747  0.07553756  0.97528200     0.18500
H2553       H  0.60116647  0.00710915  0.92122155     0.18500
N2554       N  0.65427618  0.97774460  0.93612048    -0.88300
H2555       H  0.58796089  0.10155748  0.97500997     0.35800
H2556       H  0.61168898  0.12419033  0.95955242     0.40900
H2557       H  0.67205957  0.45443639  0.94657885     0.40500
H2558       H  0.63250274  0.44340710  0.94293101     0.35400
C2559       C  0.84557665  0.00332148  0.94389372    -0.26300
C2560       C  0.82959528  0.02881945  0.95514380    -0.14400
C2561       C  0.84299308  0.06264180  0.95625499     0.36300
C2562       C  0.87173274  0.07071294  0.94607427    -0.25700
C2563       C  0.88810303  0.04535640  0.93496794    -0.15000
C2564       C  0.87484862  0.01127260  0.93378824     0.37300
N2565       N  0.89026315  0.98541638  0.92179349    -0.89200
H2566       H  0.83555666  0.97705367  0.94337177     0.18500
H2567       H  0.88114819  0.09725668  0.94665169     0.18500
N2568       N  0.82740925  0.08885217  0.96783349    -0.88300
H2569       H  0.87679661  0.96207198  0.92202886     0.35800
H2570       H  0.91331306  0.97990293  0.92766508     0.40900
H2571       H  0.82101760  0.10955471  0.95898809     0.40500
H2572       H  0.84463807  0.09805180  0.97777640     0.35400
C2573       C  0.65946139  0.49217833  0.70757908    -0.26300
C2574       C  0.63762135  0.46558455  0.70206854    -0.14400
C2575       C  0.62374795  0.46609920  0.68359587     0.36300
C2576       C  0.63396213  0.99383999  0.67417326    -0.25700
C2577       C  0.65761385  0.01914033  0.67923964    -0.15000
C2578       C  0.67017286  0.01968623  0.69813136     0.37300
N2579       N  0.69370216  0.04499374  0.70476793    -0.89200
H2580       H  0.66989930  0.49220213  0.72180101     0.18500
H2581       H  0.62373477  0.99348835  0.65990547     0.18500
N2582       N  0.59917116  0.44128919  0.67770827    -0.88300
H2583       H  0.68318825  0.06984375  0.70413335     0.35800
H2584       H  0.71475611  0.04387156  0.69617503     0.40900
H2585       H  0.57956745  0.44249448  0.68740520     0.40500
H2586       H  0.60916060  0.41620187  0.67803862     0.35400
C2587       C  0.67717621  0.22985398  0.69614410    -0.26300
C2588       C  0.66199050  0.22764841  0.67821532    -0.14400
C2589       C  0.63901803  0.25341107  0.67289164     0.36300
C2590       C  0.63154577  0.28075411  0.68573915    -0.25700
C2591       C  0.64724370  0.28319516  0.70351100    -0.15000
C2592       C  0.67070367  0.25784580  0.70863085     0.37300
N2593       N  0.68783192  0.26075890  0.72651237    -0.89200
H2594       H  0.69507504  0.21034449  0.70019231     0.18500
H2595       H  0.61332269  0.30015429  0.68197167     0.18500
N2596       N  0.62260709  0.25108659  0.65476531    -0.88300
H2597       H  0.70220358  0.28347722  0.72608211     0.35800
H2598       H  0.70416135  0.23991441  0.72818541     0.40900
H2599       H  0.64021468  0.25543866  0.64412835     0.40500
H2600       H  0.60522131  0.27104008  0.65350813     0.35400
C2601       C  0.84519997  0.51610384  0.68812454    -0.26300
C2602       C  0.81936951  0.01095090  0.67926411    -0.14400
C2603       C  0.79602496  0.98547655  0.68472056     0.36300
C2604       C  0.80067075  0.46319179  0.69759268    -0.25700
C2605       C  0.83147372  0.46447320  0.70669611    -0.15000
C2606       C  0.85428682  0.49110583  0.70167478     0.37300
N2607       N  0.88678608  0.49351250  0.70980576    -0.89200
H2608       H  0.86249119  0.53664440  0.68446177     0.18500
H2609       H  0.78327488  0.44283618  0.70138727     0.18500
N2610       N  0.76401803  0.98432336  0.67592479    -0.88300
H2611       H  0.90379943  0.49078650  0.69865674     0.35800
H2612       H  0.89150941  0.47303834  0.71909073     0.40900
H2613       H  0.75183338  0.00753516  0.67940559     0.40500
H2614       H  0.74981511  0.96396865  0.68150379     0.35400
C2615       C  0.85176911  0.23900208  0.68379695    -0.26300
C2616       C  0.81897966  0.22868582  0.68062700    -0.14400
C2617       C  0.79341471  0.24496753  0.69111149     0.36300
C2618       C  0.80112558  0.27147115  0.70443852    -0.25700
C2619       C  0.83383207  0.28201304  0.70747943    -0.15000
C2620       C  0.85941275  0.26536954  0.69715640     0.37300
N2621       N  0.89326006  0.27480422  0.70002593    -0.89200
H2622       H  0.87150582  0.22653790  0.67583579     0.18500
H2623       H  0.78158104  0.28405771  0.71250703     0.18500
N2624       N  0.75974720  0.23433396  0.68830748    -0.88300
H2625       H  0.89898609  0.27103752  0.71439020     0.35800
H2626       H  0.89601979  0.30136022  0.69704029     0.40900
H2627       H  0.75306703  0.24084794  0.67440770     0.40500
H2628       H  0.74424490  0.24866382  0.69735231     0.35400
C2629       C  0.69258059  0.49150221  0.31189427    -0.26300
C2630       C  0.66825301  0.48136194  0.32502086    -0.14400
C2631       C  0.63658530  0.49678962  0.32423054     0.36300
C2632       C  0.63276748  0.01948821  0.30755741    -0.25700
C2633       C  0.65803680  0.03327279  0.29616062    -0.15000
C2634       C  0.69037282  0.02011496  0.29793592     0.37300
N2635       N  0.71717440  0.03370790  0.28688547    -0.89200
H2636       H  0.71708515  0.48031344  0.31265620     0.18500
H2637       H  0.60790241  0.02947988  0.30618225     0.18500
N2638       N  0.61078556  0.48845288  0.33756404    -0.88300
H2639       H  0.71903494  0.06054788  0.28961941     0.35800
H2640       H  0.71182991  0.03004858  0.27243731     0.40900
H2641       H  0.61836944  0.47002100  0.34750152     0.40500
H2642       H  0.59145973  0.47699142  0.32987648     0.35400
C2643       C  0.69188264  0.24060129  0.32236146    -0.26300
C2644       C  0.66893141  0.26724676  0.32601571    -0.14400
C2645       C  0.63920773  0.26805769  0.31568939     0.36300
C2646       C  0.63295301  0.24205652  0.30181142    -0.25700
C2647       C  0.65604849  0.21553663  0.29801612    -0.15000
C2648       C  0.68587298  0.21490611  0.30834134     0.37300
N2649       N  0.70981604  0.18805678  0.30454448    -0.89200
H2650       H  0.71484737  0.24024633  0.33024206     0.18500
H2651       H  0.61000743  0.24235824  0.29392025     0.18500
N2652       N  0.61551884  0.29516713  0.31941305    -0.88300
H2653       H  0.73048832  0.19133113  0.31327371     0.35800
H2654       H  0.71785406  0.19085183  0.29046705     0.40900
H2655       H  0.60701340  0.29210095  0.33338612     0.40500
H2656       H  0.59501645  0.29215557  0.31052266     0.35400
C2657       C  0.80896952  0.48297609  0.31065460    -0.26300
C2658       C  0.82640832  0.48146841  0.32791448    -0.14400
C2659       C  0.85878266  0.00535537  0.33242192     0.36300
C2660       C  0.86708530  0.03129283  0.31913167    -0.25700
C2661       C  0.84976922  0.03412796  0.30190779    -0.15000
C2662       C  0.82388783  0.01046057  0.29783174     0.37300
N2663       N  0.80440492  0.01319560  0.28089052    -0.89200
H2664       H  0.78874756  0.46502799  0.30794944     0.18500
H2665       H  0.88682115  0.04961523  0.32224996     0.18500
N2666       N  0.87625469  0.00294927  0.35016742    -0.88300
H2667       H  0.81131533  0.50642422  0.26833851     0.35800
H2668       H  0.79410317  0.03820784  0.28053231     0.40900
H2669       H  0.88228295  0.48113624  0.34973838     0.40500
H2670       H  0.89438265  0.02237873  0.35110534     0.35400
C2671       C  0.80565555  0.26285852  0.31407677    -0.26300
C2672       C  0.82590206  0.26867245  0.33000035    -0.14400
C2673       C  0.85421975  0.24818008  0.33245719     0.36300
C2674       C  0.86215077  0.22238286  0.31885120    -0.25700
C2675       C  0.84190224  0.21650679  0.30291417    -0.15000
C2676       C  0.81307124  0.23683932  0.30057902     0.37300
N2677       N  0.79080319  0.23189751  0.28483280    -0.89200
H2678       H  0.78348924  0.27825893  0.31227728     0.18500
H2679       H  0.88423715  0.20688650  0.32068530     0.18500
N2680       N  0.87517910  0.25388233  0.34859798    -0.88300
H2681       H  0.76784326  0.22502074  0.29047679     0.35800
H2682       H  0.79793238  0.21117911  0.27599581     0.40900
H2683       H  0.89878142  0.26000455  0.34357115     0.40500
H2684       H  0.87670858  0.23045068  0.35608654     0.35400
C2685       C  0.58289092  0.22779230  0.56321844    -0.26300
C2686       C  0.57613920  0.20590935  0.54751840    -0.14400
C2687       C  0.59679859  0.17718534  0.54378432     0.36300
C2688       C  0.62436656  0.17171189  0.55516205    -0.25700
C2689       C  0.63232633  0.19409741  0.57059190    -0.15000
C2690       C  0.61065515  0.22223931  0.57479729     0.37300
N2691       N  0.61623867  0.24603522  0.59029569    -0.89200
H2692       H  0.56706880  0.25001375  0.56610259     0.18500
H2693       H  0.63996506  0.14968378  0.55153759     0.18500
N2694       N  0.59051292  0.15327426  0.52834850    -0.88300
H2695       H  0.63910647  0.25819659  0.58830426     0.35800
H2696       H  0.61625198  0.23196568  0.60297245     0.40900
H2697       H  0.56687597  0.14280385  0.53013138     0.40500
H2698       H  0.59116651  0.16696579  0.51553283     0.35400
C2699       C  0.87393765  0.17470569  0.56503974    -0.26300
C2700       C  0.85338260  0.20029497  0.57317284    -0.14400
C2701       C  0.86063637  0.23603027  0.57056241     0.36300
C2702       C  0.88774947  0.24535853  0.55917133    -0.25700
C2703       C  0.90730126  0.21962531  0.55046057    -0.15000
C2704       C  0.90085910  0.18402736  0.55380527     0.37300
N2705       N  0.92078514  0.15694273  0.54553125    -0.89200
H2706       H  0.86860685  0.14721138  0.56709824     0.18500
H2707       H  0.89299377  0.27266174  0.55648270     0.18500
N2708       N  0.83969680  0.26257148  0.57865034    -0.88300
H2709       H  0.92005579  0.15916567  0.53069729     0.35800
H2710       H  0.94513128  0.16071415  0.54999970     0.40900
H2711       H  0.81666871  0.26044221  0.57205040     0.40500
H2712       H  0.84875597  0.28746266  0.57547246     0.35400
C2713       C  0.57893783  0.29744557  0.44922531    -0.26300
C2714       C  0.57938355  0.26214298  0.45421460    -0.14400
C2715       C  0.60587026  0.24073062  0.44834373     0.36300
C2716       C  0.63169334  0.25541841  0.43760131    -0.25700
C2717       C  0.63180863  0.29115146  0.43325353    -0.15000
C2718       C  0.60489739  0.31217894  0.43899548     0.37300
N2719       N  0.60285664  0.34838433  0.43424624    -0.89200
H2720       H  0.55861121  0.31389214  0.45379858     0.18500
H2721       H  0.65232733  0.23927388  0.43321048     0.18500
N2722       N  0.60640931  0.20436734  0.45331868    -0.88300
H2723       H  0.60497829  0.35044905  0.41946349     0.35800
H2724       H  0.62241183  0.36178319  0.44073009     0.40900
H2725       H  0.60883377  0.20278849  0.46811697     0.40500
H2726       H  0.62723536  0.19219478  0.44750306     0.35400
C2727       C  0.88358527  0.30245938  0.46639763    -0.26300
C2728       C  0.90470562  0.27729352  0.45848017    -0.14400
C2729       C  0.89726391  0.26253755  0.44039838     0.36300
C2730       C  0.86861812  0.27320471  0.43087683    -0.25700
C2731       C  0.84699253  0.29783255  0.43905011    -0.15000
C2732       C  0.85480934  0.31256942  0.45704718     0.37300
N2733       N  0.83327990  0.33718145  0.46622572    -0.89200
H2734       H  0.88901393  0.31361166  0.48031953     0.18500
H2735       H  0.86311627  0.26165515  0.41709373     0.18500
N2736       N  0.91725765  0.23590142  0.43159277    -0.88300
H2737       H  0.84658782  0.36018057  0.46882098     0.35800
H2738       H  0.82610347  0.32691486  0.47937118     0.40900
H2739       H  0.93697672  0.22870125  0.44020744     0.40500
H2740       H  0.92735023  0.24639460  0.41915614     0.35400
C2741       C  0.58333660  0.04886376  0.55554995    -0.26300
C2742       C  0.57921152  0.01407276  0.54958873    -0.14400
C2743       C  0.60105676  0.98824375  0.55661641     0.36300
C2744       C  0.62859310  0.99874332  0.56750606    -0.25700
C2745       C  0.63379023  0.03408072  0.57217428    -0.15000
C2746       C  0.60973006  0.05890396  0.56722252     0.37300
N2747       N  0.61249895  0.09444145  0.57387131    -0.89200
H2748       H  0.56611464  0.06849321  0.55071126     0.18500
H2749       H  0.64668057  0.97943872  0.57161792     0.18500
N2750       N  0.59687701  0.95166432  0.55234183    -0.88300
H2751       H  0.61110722  0.09415575  0.58876074     0.35800
H2752       H  0.59244703  0.10918839  0.56922671     0.40900
H2753       H  0.57527637  0.94712789  0.54463722     0.40500
H2754       H  0.59387234  0.93870873  0.56529740     0.35400
C2755       C  0.88786528  0.98172390  0.56417348    -0.26300
C2756       C  0.90516644  0.00282889  0.55131059    -0.14400
C2757       C  0.89598113  0.03803797  0.54916205     0.36300
C2758       C  0.86931099  0.05126813  0.55943324    -0.25700
C2759       C  0.85079431  0.03008460  0.57179735    -0.15000
C2760       C  0.86076817  0.99495531  0.57443872     0.37300
N2761       N  0.84353669  0.97187544  0.58696644    -0.89200
H2762       H  0.89501333  0.95467424  0.56590251     0.18500
H2763       H  0.86300382  0.07844707  0.55745171     0.18500
N2764       N  0.91316608  0.06086282  0.53641710    -0.88300
H2765       H  0.81891937  0.97023647  0.58261965     0.35800
H2766       H  0.84453738  0.98226123  0.60078407     0.40900
H2767       H  0.93795696  0.06190350  0.54043990     0.40500
H2768       H  0.91171269  0.05043189  0.52261158     0.35400
C2769       C  0.57710079  0.46388691  0.43892437    -0.26300
C2770       C  0.57945343  0.48965578  0.45324983    -0.14400
C2771       C  0.60877088  0.50959786  0.45485782     0.36300
C2772       C  0.63643450  0.50030560  0.44376410    -0.25700
C2773       C  0.63467894  0.47244775  0.43069567    -0.15000
C2774       C  0.60421840  0.45569154  0.42741945     0.37300
N2775       N  0.60049224  0.42975405  0.41272056    -0.89200
H2776       H  0.55455011  0.44890978  0.43725618     0.18500
H2777       H  0.65983675  0.51339790  0.44610977     0.18500
N2778       N  0.61077463  0.53777228  0.46851923    -0.88300
H2779       H  0.61729517  0.40967973  0.41511163     0.35800
H2780       H  0.60658394  0.44128980  0.39972335     0.40900
H2781       H  0.59385182  0.55682143  0.46443095     0.40500
H2782       H  0.63007467  0.05841321  0.45089052     0.35400
C2783       C  0.87195013  0.42949308  0.44163057    -0.26300
C2784       C  0.85078756  0.45689417  0.43657769    -0.14400
C2785       C  0.85882529  0.49142466  0.44216026     0.36300
C2786       C  0.88690337  0.49759436  0.45340184    -0.25700
C2787       C  0.90711462  0.46983941  0.45913490    -0.15000
C2788       C  0.89986399  0.43559185  0.45280019     0.37300
N2789       N  0.91964521  0.40636204  0.45823109    -0.89200
H2790       H  0.86601381  0.40282942  0.43750277     0.18500
H2791       H  0.89225103  0.52391720  0.45835115     0.18500
N2792       N  0.83794150  0.52025728  0.43757938    -0.88300
H2793       H  0.92001218  0.40508229  0.47310447     0.35800
H2794       H  0.94373908  0.41052444  0.45339358     0.40900
H2795       H  0.81441163  0.51540037  0.44313901     0.40500
H2796       H  0.83613675  0.52164363  0.42275542     0.35400
N2797       N  0.94334933  0.98061858  0.50526186    -0.36600
N2798       N  0.49483284  0.00099174  0.47042491    -0.57100
N2799       N  0.54194777  0.49635812  0.50229683    -0.36600
N2800       N  0.49229119  0.49830123  0.53275992    -0.57100
C2801       C  0.92517874  0.97133091  0.48986001     0.27000
C2802       C  0.92570903  0.48835432  0.52345370     0.27000
C2803       C  0.56386830  0.99651682  0.48482165     0.27000
C2804       C  0.55923742  0.48880604  0.51815422     0.27000
C2805       C  0.96825397  0.97919961  0.46490847     0.35600
C2806       C  0.52176852  0.00323648  0.45912957     0.35600
C2807       C  0.96921773  0.50333757  0.54723096     0.35600
C2808       C  0.51928344  0.50927433  0.54231361     0.35600
C2809       C  0.89377945  0.96156498  0.49574868    -0.21900
C2810       C  0.89357204  0.47905661  0.51892818    -0.21900
C2811       C  0.59497247  0.98710567  0.49109746    -0.21900
C2812       C  0.58897925  0.47350652  0.51309976    -0.21900
C2813       C  0.97865105  0.98463686  0.44634233    -0.22900
C2814       C  0.51232451  0.00685613  0.44026365    -0.22900
C2815       C  0.98001219  0.51829556  0.56417748    -0.22900
C2816       C  0.51030498  0.52826617  0.55842376    -0.22900
C2817       C  0.93527153  0.97398985  0.47057159    -0.18300
C2818       C  0.93590027  0.50085539  0.54154254    -0.18300
C2819       C  0.55175909  0.50186793  0.53652804    -0.18300
C2820       C  0.55457378  0.99819953  0.46530677    -0.18300
H2821       H  0.87328417  0.95342458  0.48687846     0.14600
H2822       H  0.87255778  0.47797856  0.52845026     0.14600
H2823       H  0.61601380  0.97942959  0.48252762     0.14600
H2824       H  0.60870620  0.46594890  0.52257269     0.14600
H2825       H  0.96345242  0.98718667  0.43376667     0.12900
H2826       H  0.52819967  0.00860486  0.42787772     0.12900
H2827       H  0.96511482  0.52991908  0.57537230     0.12900
H2828       H  0.52643380  0.54054388  0.56879619     0.12900
H2829       H  0.96591290  0.99359618  0.50508108     0.26200
H2830       H  0.52132675  0.51263703  0.50188065     0.26200
N2831       N  0.54393297  0.73405725  0.49818880    -0.36600
N2832       N  0.99303079  0.73924545  0.53419125    -0.57100
N2833       N  0.94409775  0.75296846  0.50542128    -0.36600
N2834       N  0.99473342  0.76195647  0.47643931    -0.57100
C2835       C  0.56216292  0.72171342  0.51280893     0.27000
C2836       C  0.56283137  0.73228947  0.48227951     0.27000
C2837       C  0.92522048  0.73833183  0.51914387     0.27000
C2838       C  0.92610901  0.75269726  0.48922356     0.27000
C2839       C  0.52004536  0.72639705  0.53870573     0.35600
C2840       C  0.96607234  0.73956516  0.54543645     0.35600
C2841       C  0.52222133  0.75480521  0.45886221     0.35600
C2842       C  0.96861225  0.77541265  0.46713322     0.35600
C2843       C  0.59294973  0.71172799  0.50603729    -0.21900
C2844       C  0.59339005  0.71849072  0.48680352    -0.21900
C2845       C  0.89495606  0.72860128  0.51153762    -0.21900
C2846       C  0.89547351  0.73783558  0.49265526    -0.21900
C2847       C  0.51029397  0.72749718  0.55766197    -0.22900
C2848       C  0.97512285  0.73993122  0.56448241    -0.22900
C2849       C  0.51353389  0.77342978  0.44277646    -0.22900
C2850       C  0.97919969  0.79475649  0.45167856    -0.22900
C2851       C  0.55277930  0.72168674  0.53230899    -0.18300
C2852       C  0.55489140  0.74717257  0.46444724    -0.18300
C2853       C  0.93542287  0.76876795  0.47200753    -0.18300
C2854       C  0.93367959  0.73580942  0.53861610    -0.18300
H2855       H  0.61333612  0.70150818  0.51419716     0.14600
H2856       H  0.61419357  0.71471650  0.47730801     0.14600
H2857       H  0.87436215  0.71672046  0.51891089     0.14600
H2858       H  0.87539163  0.73451787  0.48264928     0.14600
H2859       H  0.52584405  0.72605645  0.57015266     0.12900
H2860       H  0.95902215  0.73916317  0.57680475     0.12900
H2861       H  0.52982519  0.78471153  0.43224082     0.12900
H2862       H  0.96406157  0.80834066  0.44145717     0.12900
H2863       H  0.52198578  0.74765100  0.49944300     0.26200
H2864       H  0.96600292  0.76654222  0.50749059     0.26200
C2865       C  0.82049837  0.94899464  0.42586585     0.42500
N2866       N  0.78000768  0.94010525  0.40680669     0.01400
C2867       C  0.68378339  0.79008597  0.40551267    -0.06500
H2868       H  0.81706723  0.77268775  0.40159240     0.06900
C2869       C  0.80887302  0.83037966  0.33663077    -0.06900
Co2870     Co  0.74230983  0.87637533  0.41820248     0.74200
N2871       N  0.78191393  0.81440708  0.40583617    -0.26000
Co2872     Co  0.74829758  0.81248740  0.38316226     0.74100
C2873       C  0.82108911  0.79584907  0.34187349     0.42600
N2874       N  0.78588948  0.91725655  0.35068078     0.01000
N2875       N  0.78619361  0.81407806  0.36298766     0.01100
N2876       N  0.68190869  0.83341186  0.42746405    -0.46900
H2877       H  0.80591531  0.90261869  0.44451714     0.06800
N2878       N  0.77891162  0.83867463  0.41918662     0.01400
N2879       N  0.71531561  0.81226902  0.36056259     0.01100
C2880       C  0.68337760  0.79306348  0.33837271     0.42700
N2881       N  0.78446369  0.94112417  0.36435204    -0.25500
C2882       C  0.67924508  0.91821239  0.42746743    -0.06400
N2883       N  0.80595992  0.96076906  0.40979264    -0.46600
N2884       N  0.69681253  0.78532034  0.35538447    -0.46800
C2885       C  0.66282474  0.94873440  0.41990306     0.42500
N2886       N  0.70738448  0.83713709  0.41596050     0.01400
N2887       N  0.71286560  0.94021246  0.36163113    -0.25500
N2888       N  0.77736607  0.91550607  0.41975824    -0.26000
N2889       N  0.71472312  0.91629359  0.34799315     0.01000
H2890       H  0.68838104  0.98992524  0.36335474     0.06900
H2891       H  0.69506936  0.84027868  0.31954796     0.06900
N2892       N  0.70933886  0.81221499  0.40292877    -0.26100
N2893       N  0.78709443  0.83914425  0.35019904    -0.25700
N2894       N  0.70718565  0.93950289  0.40397012     0.01400
C2895       C  0.82143107  0.80950334  0.42786246     0.42800
C2896       C  0.80647910  0.96630475  0.36050641    -0.06900
N2897       N  0.71571541  0.83727274  0.34771586    -0.25700
H2898       H  0.81137313  0.84353040  0.32311580     0.06900
N2899       N  0.80175835  0.83656607  0.43250683    -0.46900
H2900       H  0.80775741  0.99134358  0.36776377     0.06900
C2901       C  0.68053045  0.95436244  0.33723910     0.42600
C2902       C  0.80149531  0.91932776  0.43246406    -0.06400
Co2903     Co  0.74616623  0.94111562  0.38426080     0.73800
N2904       N  0.80737719  0.92539599  0.33720022    -0.46600
C2905       C  0.66557369  0.80438213  0.42200771     0.42900
N2906       N  0.68174266  0.96122319  0.40555242    -0.46600
Co2907     Co  0.75080522  0.87746535  0.34888767     0.73900
C2908       C  0.69607801  0.82754648  0.33323570    -0.06900
C2909       C  0.80820439  0.79449558  0.41005809    -0.06500
N2910       N  0.70607147  0.91422616  0.41661147    -0.26000
N2911       N  0.80586416  0.78769962  0.35843278    -0.46800
H2912       H  0.67910316  0.76662942  0.39721884     0.06900
C2913       C  0.69164666  0.96497524  0.35622827    -0.06900
Cl2914     Cl  0.74689360  0.87687030  0.38357943    -0.49900
C2915       C  0.82163325  0.95601981  0.34236230     0.42600
H2916       H  0.67277017  0.90245055  0.43961333     0.06800
N2917       N  0.69644241  0.92422654  0.33301649    -0.46600
C2918       C  0.82185938  0.55483429  0.58132254     0.42500
N2919       N  0.77834970  0.56320311  0.59838250     0.01400
C2920       C  0.67942462  0.71027711  0.59794854    -0.06500
H2921       H  0.81081088  0.73311138  0.60966113     0.06900
C2922       C  0.79547718  0.66723222  0.67142722    -0.06900
Co2923     Co  0.74348039  0.62804820  0.58643818     0.74200
N2924       N  0.77837111  0.68988033  0.60261110    -0.26000
Co2925     Co  0.74082930  0.68891264  0.62300029     0.74100
C2926       C  0.80960135  0.70147211  0.66697948     0.42600
N2927       N  0.77327661  0.58115129  0.65488507     0.01000
N2928       N  0.77528306  0.68592127  0.64498644     0.01100
N2929       N  0.68343076  0.66929656  0.57464367    -0.46900
H2930       H  0.81083069  0.60337917  0.56321747     0.06800
N2931       N  0.77917732  0.66604727  0.58893942     0.01400
N2932       N  0.70392876  0.68690288  0.64358697     0.01100
C2933       C  0.66986258  0.70492252  0.66520751     0.42700
N2934       N  0.77396133  0.55820199  0.64072701    -0.25500
C2935       C  0.68463696  0.58763897  0.57131846    -0.06400
N2936       N  0.80376971  0.54175190  0.59591817    -0.46600
N2937       N  0.68479173  0.71339897  0.64864136    -0.46800
C2938       C  0.66637669  0.55611114  0.57599264     0.42500
N2939       N  0.70753967  0.66640987  0.58713581     0.01400
N2940       N  0.70258093  0.55932424  0.63904895    -0.25500
N2941       N  0.77893121  0.58941419  0.58633539    -0.26000
N2942       N  0.70176316  0.58300766  0.65285570     0.01000
H2943       H  0.67944508  0.50889509  0.63602232     0.06900
H2944       H  0.67914377  0.65590358  0.68316486     0.06900
N2945       N  0.70592059  0.68987729  0.60099523    -0.26100
N2946       N  0.77452639  0.65987608  0.65717545    -0.25700
N2947       N  0.70558991  0.56375405  0.59629541     0.01400
C2948       C  0.82179286  0.69729642  0.58374688     0.42800
C2949       C  0.79433862  0.53215224  0.64538634    -0.06900
N2950       N  0.70293062  0.66113090  0.65592278    -0.25700
H2951       H  0.79670619  0.65315860  0.68470763     0.06900
N2952       N  0.80467233  0.66946940  0.57741225    -0.46900
H2953       H  0.79649727  0.50764134  0.63767394     0.06900
C2954       C  0.66667891  0.54406575  0.66175689     0.42600
C2955       C  0.80503094  0.58615760  0.57488285    -0.06400
Co2956     Co  0.74004325  0.56015085  0.61853095     0.73800
N2957       N  0.79190135  0.57150379  0.66941633    -0.46600
C2958       C  0.66467922  0.69633493  0.58035356     0.42900
N2959       N  0.68070053  0.54254128  0.59179522    -0.46600
Co2960     Co  0.73813378  0.62125654  0.65546756     0.73900
C2961       C  0.68182443  0.66987301  0.66991236    -0.06900
C2962       C  0.80445265  0.71128857  0.60045868    -0.06500
N2963       N  0.70798527  0.59009046  0.58445982    -0.26000
N2964       N  0.79555515  0.71126018  0.65041218    -0.46800
H2965       H  0.67082531  0.73096019  0.60730656     0.06900
C2966       C  0.68090309  0.53393644  0.64326821    -0.06900
Cl2967     Cl  0.74061158  0.62455789  0.62091714    -0.49900
C2968       C  0.80633425  0.54086493  0.66450332     0.42600
H2969       H  0.68138400  0.60661371  0.56027130     0.06800
N2970       N  0.68056769  0.57500657  0.66645050    -0.46600
N2971       N  0.79345035  0.00662170  0.00240775    -0.36600
N2972       N  0.74381638  0.99316127  0.03108599    -0.57100
N2973       N  0.69292182  0.00209749  0.00252640    -0.36600
N2974       N  0.74419033  0.50314977  0.97311798    -0.57100
C2975       C  0.81257126  0.99460980  0.01673340     0.27000
C2976       C  0.81333026  0.49595365  0.98704642     0.27000
C2977       C  0.67481757  0.98846161  0.01688564     0.27000
C2978       C  0.67474415  0.49471722  0.98666740     0.27000
C2979       C  0.77041570  0.99390124  0.04257136     0.35600
C2980       C  0.71724903  0.99089526  0.04258486     0.35600
C2981       C  0.77116719  0.51268970  0.96290575     0.35600
C2982       C  0.71732542  0.51189845  0.96270219     0.35600
C2983       C  0.84373783  0.98686729  0.00973074    -0.21900
C2984       C  0.84343613  0.99428627  0.99063944    -0.21900
C2985       C  0.64366051  0.97969466  0.01016801    -0.21900
C2986       C  0.64352700  0.48259501  0.99133366    -0.21900
C2987       C  0.76074770  0.99231358  0.06151024    -0.22900
C2988       C  0.72695517  0.99035341  0.06151824    -0.22900
C2989       C  0.76136747  0.52658233  0.94564697    -0.22900
C2990       C  0.72732144  0.52610314  0.94552708    -0.22900
C2991       C  0.80318680  0.99129340  0.03609360    -0.18300
C2992       C  0.80446825  0.50773341  0.96867109    -0.18300
C2993       C  0.68395217  0.50652907  0.96833742    -0.18300
C2994       C  0.68474214  0.98562152  0.03615576    -0.18300
H2995       H  0.86472554  0.97721082  0.01758444     0.14600
H2996       H  0.86525020  0.47936919  0.98253677     0.14600
H2997       H  0.62324377  0.96889287  0.01817379     0.14600
H2998       H  0.62274946  0.47881737  0.98186728     0.14600
H2999       H  0.77645863  0.99133021  0.07395083     0.12900
H3000       H  0.71138496  0.98769621  0.07397993     0.12900
H3001       H  0.77710034  0.53604317  0.93431655     0.12900
H3002       H  0.71171042  0.53514922  0.93410075     0.12900
H3003       H  0.77035473  0.01823972  0.00383242     0.26200
H3004       H  0.71550729  0.01491203  0.00389433     0.26200
N3005       N  0.69157517  0.75462465  0.00206313    -0.36600
N3006       N  0.74304765  0.75772008  0.03027619    -0.57100
N3007       N  0.79110656  0.75315370  0.00002517    -0.36600
N3008       N  0.73946237  0.75206570  0.97099357    -0.57100
C3009       C  0.67434645  0.76512321  0.01763612     0.27000
C3010       C  0.67235223  0.76053946  0.98671198     0.27000
C3011       C  0.81063691  0.76294965  0.01478748     0.27000
C3012       C  0.80877611  0.75765568  0.98386537     0.27000
C3013       C  0.71708845  0.75456704  0.04216005     0.35600
C3014       C  0.77030044  0.75443835  0.04105037     0.35600
C3015       C  0.71180457  0.74260995  0.96139320     0.35600
C3016       C  0.76552191  0.74138625  0.96031406     0.35600
C3017       C  0.64400614  0.77821693  0.01206080    -0.21900
C3018       C  0.64266503  0.77507314  0.99254777    -0.21900
C3019       C  0.84102295  0.77383281  0.00789551    -0.21900
C3020       C  0.83995406  0.77018890  0.98840936    -0.21900
C3021       C  0.72783426  0.74898805  0.06063097    -0.22900
C3022       C  0.76170572  0.74903992  0.05993293    -0.22900
C3023       C  0.72032717  0.72672699  0.94424564    -0.22900
C3024       C  0.75438161  0.72606214  0.94353087    -0.22900
C3025       C  0.68418993  0.76064238  0.03679845    -0.18300
C3026       C  0.67914907  0.74879220  0.96797023    -0.18300
C3027       C  0.79911362  0.74591216  0.96555737    -0.18300
C3028       C  0.80253837  0.76039267  0.03435810    -0.18300
H3029       H  0.62442361  0.78800887  0.02114880     0.14600
H3030       H  0.62185544  0.78181327  0.98367730     0.14600
H3031       H  0.86214222  0.78260249  0.01607329     0.14600
H3032       H  0.86017449  0.77543637  0.97875644     0.14600
H3033       H  0.71287829  0.74635762  0.07334254     0.12900
H3034       H  0.77811900  0.74643323  0.07198486     0.12900
H3035       H  0.70375883  0.71651799  0.93345813     0.12900
H3036       H  0.76923155  0.71524551  0.93208186     0.12900
H3037       H  0.71288979  0.73969289  0.00205394     0.26200
H3038       H  0.76892865  0.73972294  0.00096160     0.26200
C3039       C  0.91504626  0.54875080  0.92087114     0.42500
N3040       N  0.93584810  0.58291848  0.89991709     0.01400
C3041       C  0.57323007  0.58169719  0.84440934    -0.06500
H3042       H  0.60322418  0.60694198  0.91259475     0.06900
C3043       C  0.53519105  0.71541236  0.91627671    -0.06900
Co3044     Co  0.00028481  0.56116943  0.88333450     0.74200
N3045       N  0.55621083  0.59369593  0.90044508    -0.26000
Co3046     Co  0.55237623  0.63124156  0.87937837     0.74100
C3047       C  0.56810846  0.70423954  0.92252932     0.42600
N3048       N  0.95254127  0.68508850  0.90374375     0.01000
N3049       N  0.55110007  0.66963483  0.90049879     0.01100
N3050       N  0.53698821  0.53791065  0.84927588    -0.46900
H3051       H  0.96121519  0.51298306  0.91966449     0.06800
N3052       N  0.53553307  0.56722710  0.90267512     0.01400
N3053       N  0.54750160  0.67134888  0.85909056     0.01100
C3054       C  0.55593618  0.71194013  0.83841464     0.42700
N3055       N  0.93234258  0.65840313  0.90095145    -0.25500
C3056       C  0.96344177  0.53439816  0.84728357    -0.06400
N3057       N  0.90961681  0.57747080  0.91060231    -0.46600
N3058       N  0.56842684  0.68173662  0.84555518    -0.46800
C3059       C  0.93456451  0.54458995  0.83640831     0.42500
N3060       N  0.53227643  0.56377077  0.86147157     0.01400
N3061       N  0.93878517  0.66224160  0.85977276    -0.25500
N3062       N  0.95951566  0.55975334  0.90242012    -0.26000
N3063       N  0.95951758  0.68852423  0.86238349     0.01000
H3064       H  0.89815955  0.65472838  0.84015471     0.06900
H3065       H  0.51072399  0.74260717  0.84908105     0.06900
N3066       N  0.55277618  0.59021348  0.85900362    -0.26100
N3067       N  0.52637344  0.69182240  0.90273092    -0.25700
N3068       N  0.94285440  0.58223892  0.85884980     0.01400
C3069       C  0.57565926  0.55796909  0.92224482     0.42800
C3070       C  0.90645699  0.66117734  0.91250260    -0.06900
N3071       N  0.52313554  0.69374562  0.86153604    -0.25700
H3072       H  0.52147046  0.73857368  0.92024217     0.06900
N3073       N  0.54696091  0.54425670  0.91528457    -0.46900
H3074       H  0.88490124  0.64446384  0.91211681     0.06900
C3075       C  0.93122964  0.70376738  0.83805234     0.42600
C3076       C  0.94839359  0.53635759  0.91538287    -0.06400
Co3077     Co  0.93724511  0.62150681  0.87957463     0.73800
N3078       N  0.94020942  0.70782347  0.91642894    -0.46600
C3079       C  0.56227610  0.54659804  0.83788130     0.42900
N3080       N  0.92241822  0.57398438  0.84470703    -0.46600
Co3081     Co  0.99310896  0.69005433  0.88476254     0.73900
C3082       C  0.52613912  0.71960942  0.84915496    -0.06900
C3083       C  0.58158543  0.59034190  0.91231218    -0.06500
N3084       N  0.96649814  0.55893132  0.86091314    -0.26000
N3085       N  0.57604430  0.67595765  0.91209046    -0.46800
H3086       H  0.59355975  0.59762540  0.83956795     0.06900
C3087       C  0.91912016  0.66997069  0.84493693    -0.06900
Cl3088     Cl  0.99696008  0.62567068  0.88290391    -0.49900
C3089       C  0.91132941  0.69363269  0.92275365     0.42600
H3090       H  0.97821966  0.51099965  0.84597799     0.06800
N3091       N  0.95587863  0.71361560  0.84974160    -0.46600
N3092       N  0.61397485  0.87954117  0.78240104    -0.36600
N3093       N  0.62059823  0.93235285  0.75378813    -0.57100
N3094       N  0.63157178  0.87725069  0.72500338    -0.36600
N3095       N  0.62779559  0.82459356  0.75432766    -0.57100
C3096       C  0.61450941  0.90849789  0.79370915     0.27000
C3097       C  0.61596189  0.85125544  0.79376445     0.27000
C3098       C  0.64151012  0.90632389  0.71582842     0.27000
C3099       C  0.64614149  0.84964399  0.71620731     0.27000
C3100       C  0.60834231  0.95246906  0.76807797     0.35600
C3101       C  0.61673910  0.95058545  0.73756710     0.35600
C3102       C  0.61467076  0.80512032  0.76841492     0.35600
C3103       C  0.62709324  0.80433871  0.73842606     0.35600
C3104       C  0.61753903  0.89838429  0.81257408    -0.21900
C3105       C  0.61806124  0.86226415  0.81261628    -0.21900
C3106       C  0.66279273  0.89714368  0.70108365    -0.21900
C3107       C  0.66560897  0.86129113  0.70128660    -0.21900
C3108       C  0.59682633  0.98377699  0.76089067    -0.22900
C3109       C  0.60213512  0.98256259  0.74154047    -0.22900
C3110       C  0.60594392  0.77231759  0.76144245    -0.22900
C3111       C  0.61386346  0.77183509  0.74243513    -0.22900
C3112       C  0.60816117  0.94319159  0.78756474    -0.18300
C3113       C  0.61129833  0.81611074  0.78761670    -0.18300
C3114       C  0.64036038  0.81420763  0.72066503    -0.18300
C3115       C  0.63010058  0.94054518  0.71972931    -0.18300
H3116       H  0.61757363  0.91521072  0.82506843     0.14600
H3117       H  0.61867686  0.84593294  0.82512534     0.14600
H3118       H  0.67468281  0.91443372  0.69104211     0.14600
H3119       H  0.68013066  0.84558735  0.69149493     0.14600
H3120       H  0.58446490  0.50315481  0.76458917     0.12900
H3121       H  0.59801488  0.50165797  0.72775580     0.12900
H3122       H  0.59497819  0.75090520  0.76920824     0.12900
H3123       H  0.61027325  0.75007645  0.73267901     0.12900
H3124       H  0.60737121  0.87865056  0.76811233     0.26200
H3125       H  0.61298828  0.87610912  0.73526443     0.26200
N3126       N  0.85741551  0.81882128  0.75662399    -0.36600
N3127       N  0.84263822  0.87088928  0.72792308    -0.57100
N3128       N  0.86106946  0.92564961  0.75499523    -0.36600
N3129       N  0.87246225  0.87358273  0.78453198    -0.57100
C3130       C  0.84340878  0.79828925  0.74305235     0.27000
C3131       C  0.85982826  0.79960237  0.77263743     0.27000
C3132       C  0.84844151  0.94522563  0.74078231     0.27000
C3133       C  0.86466659  0.94675703  0.77045509     0.27000
C3134       C  0.84120121  0.84181327  0.71684634     0.35600
C3135       C  0.84303252  0.89837072  0.71595272     0.35600
C3136       C  0.88299007  0.84546288  0.79439236     0.35600
C3137       C  0.88441314  0.90225922  0.79367671     0.35600
C3138       C  0.83670299  0.76562432  0.75055665    -0.21900
C3139       C  0.84720108  0.76640175  0.76920145    -0.21900
C3140       C  0.84405662  0.97923937  0.74730411    -0.21900
C3141       C  0.85454199  0.98027071  0.76594126    -0.21900
C3142       C  0.84016114  0.85086296  0.69777264    -0.22900
C3143       C  0.84142304  0.88666992  0.69720161    -0.22900
C3144       C  0.90086129  0.85638018  0.81019427    -0.22900
C3145       C  0.90170313  0.89231589  0.80976653    -0.22900
C3146       C  0.83921536  0.80723803  0.72368225    -0.18300
C3147       C  0.87608303  0.81008408  0.78959604    -0.18300
C3148       C  0.87931754  0.93734478  0.78799584    -0.18300
C3149       C  0.84312602  0.93394680  0.72169237    -0.18300
H3150       H  0.82616896  0.74323769  0.74321592     0.14600
H3151       H  0.84628418  0.74472097  0.77898779     0.14600
H3152       H  0.82439667  0.50285908  0.73968712     0.14600
H3153       H  0.84257582  0.50476300  0.77585525     0.14600
H3154       H  0.83861634  0.83348943  0.68553434     0.12900
H3155       H  0.84112591  0.90228236  0.68441800     0.12900
H3156       H  0.91216233  0.84015309  0.82090320     0.12900
H3157       H  0.91382679  0.90917685  0.82007611     0.12900
H3158       H  0.86891238  0.84265580  0.75434513     0.26200
H3159       H  0.87058116  0.90064977  0.75354073     0.26200
N3160       N  0.64910307  0.62248851  0.27728915    -0.36600
N3161       N  0.63259484  0.67652316  0.25024263    -0.57100
N3162       N  0.61340800  0.62339930  0.22236848    -0.36600
N3163       N  0.62701466  0.56932574  0.25018509    -0.57100
C3164       C  0.65074106  0.65125998  0.28862758     0.27000
C3165       C  0.64715774  0.59441762  0.28882676     0.27000
C3166       C  0.60070956  0.65240138  0.21424810     0.27000
C3167       C  0.59952576  0.59530798  0.21361610     0.27000
C3168       C  0.64861121  0.69626203  0.26334678     0.35600
C3169       C  0.62851046  0.69687875  0.23481651     0.35600
C3170       C  0.63916491  0.54830485  0.26388663     0.35600
C3171       C  0.62149508  0.54874873  0.23471306     0.35600
C3172       C  0.65015478  0.64135970  0.30758687    -0.21900
C3173       C  0.64810700  0.60549877  0.30771935    -0.21900
C3174       C  0.57877785  0.64257343  0.20001097    -0.21900
C3175       C  0.57815311  0.60656521  0.19955272    -0.21900
C3176       C  0.65497884  0.72923668  0.25617248    -0.22900
C3177       C  0.64216108  0.72965325  0.23807791    -0.22900
C3178       C  0.64082908  0.51416204  0.25718811    -0.22900
C3179       C  0.62997519  0.51449707  0.23867669    -0.22900
C3180       C  0.65444846  0.68605566  0.28231850    -0.18300
C3181       C  0.64676390  0.55904003  0.28274652    -0.18300
C3182       C  0.60637009  0.55980014  0.21760904    -0.18300
C3183       C  0.60971639  0.68740108  0.21865456    -0.18300
H3184       H  0.65143140  0.65818520  0.32005904     0.14600
H3185       H  0.64763325  0.58950234  0.32035091     0.14600
H3186       H  0.56482419  0.65957068  0.19080465     0.14600
H3187       H  0.56347923  0.59049907  0.19001008     0.14600
H3188       H  0.66686887  0.75097401  0.26339796     0.12900
H3189       H  0.64216003  0.75178487  0.22858003     0.12900
H3190       H  0.65724409  0.99457987  0.26313841     0.12900
H3191       H  0.63447095  0.99520427  0.22797823     0.12900
H3192       H  0.65290708  0.62180397  0.26264548     0.26200
H3193       H  0.63287847  0.62269885  0.23194251     0.26200
N3194       N  0.86894717  0.56989142  0.25339227    -0.36600
N3195       N  0.85345829  0.62322729  0.28167051    -0.57100
N3196       N  0.87024687  0.67669576  0.25417779    -0.36600
N3197       N  0.88864053  0.62353665  0.22648767    -0.57100
C3198       C  0.86676906  0.55027233  0.26931907     0.27000
C3199       C  0.88426866  0.55028554  0.23988836     0.27000
C3200       C  0.86810680  0.69585509  0.27043072     0.27000
C3201       C  0.88733803  0.69602120  0.24145380     0.27000
C3202       C  0.84212418  0.59493089  0.29103252     0.35600
C3203       C  0.84174878  0.65149297  0.29114761     0.35600
C3204       C  0.88949439  0.59540818  0.21470497     0.35600
C3205       C  0.89082514  0.65202751  0.21529565     0.35600
C3206       C  0.88076622  0.51778480  0.26585415    -0.21900
C3207       C  0.89168838  0.51774513  0.24725578    -0.21900
C3208       C  0.88391671  0.72768909  0.26799945    -0.21900
C3209       C  0.89611893  0.72776604  0.24970567    -0.21900
C3210       C  0.82327993  0.60525728  0.30660867    -0.22900
C3211       C  0.82294542  0.64114997  0.30664117    -0.22900
C3212       C  0.89253105  0.60605360  0.19593866    -0.22900
C3213       C  0.89332600  0.64196564  0.19631182    -0.22900
C3214       C  0.85044910  0.56003026  0.28642990    -0.18300
C3215       C  0.89004148  0.56030089  0.22079241    -0.18300
C3216       C  0.89314814  0.68680079  0.22219114    -0.18300
C3217       C  0.85027588  0.68637077  0.28693105    -0.18300
H3218       H  0.89214010  0.00020740  0.27721729     0.14600
H3219       H  0.91066970  0.00070104  0.24109532     0.14600
H3220       H  0.88616012  0.74882007  0.27828953     0.14600
H3221       H  0.90961469  0.74895375  0.24314819     0.14600
H3222       H  0.81135329  0.58868992  0.31699220     0.12900
H3223       H  0.81080691  0.65771284  0.31708605     0.12900
H3224       H  0.89443842  0.58965691  0.18332423     0.12900
H3225       H  0.89598582  0.65869966  0.18404772     0.12900
H3226       H  0.85723914  0.59359443  0.25113591     0.26200
H3227       H  0.85726356  0.65382440  0.25121118     0.26200
C3228       C  0.91130455  0.94177307  0.08112867     0.42500
N3229       N  0.95352454  0.93382479  0.09887389     0.01400
C3230       C  0.55888516  0.78286164  0.10195428    -0.06500
H3231       H  0.92019706  0.76435276  0.10862467     0.06900
C3232       C  0.93333992  0.82982021  0.17191264    -0.06900
Co3233     Co  0.98925590  0.86893533  0.08717481     0.74200
N3234       N  0.95292673  0.80753584  0.10239351    -0.26000
Co3235     Co  0.98899961  0.80891011  0.12362233     0.74100
C3236       C  0.92089582  0.79479982  0.16731784     0.42600
N3237       N  0.95512435  0.91715055  0.15556307     0.01000
N3238       N  0.95344453  0.81211260  0.14498786     0.01100
N3239       N  0.55905477  0.82271756  0.07827442    -0.46900
H3240       H  0.92224834  0.89267293  0.06319010     0.06800
N3241       N  0.95329601  0.83074825  0.08863535     0.01400
N3242       N  0.53005090  0.80995483  0.14590888     0.01100
C3243       C  0.56447769  0.79491896  0.16761208     0.42700
N3244       N  0.95518800  0.93976955  0.14146977    -0.25500
C3245       C  0.55929507  0.90541156  0.07507231    -0.06400
N3246       N  0.92846994  0.95545752  0.09598793    -0.46600
N3247       N  0.55059646  0.78489562  0.15096206    -0.46800
C3248       C  0.57624626  0.93693824  0.08124094     0.42500
N3249       N  0.02531545  0.83075603  0.08872479     0.01400
N3250       N  0.53042193  0.93666633  0.14094952    -0.25500
N3251       N  0.95362003  0.90733285  0.08668542    -0.26000
N3252       N  0.52947212  0.91477760  0.15538801     0.01000
H3253       H  0.55299281  0.98698116  0.13733464     0.06900
H3254       H  0.55193220  0.84348750  0.18582162     0.06900
N3255       N  0.02537885  0.80756347  0.10252415    -0.26100
N3256       N  0.95348445  0.83822099  0.15744946    -0.25700
N3257       N  0.02616119  0.93324560  0.09856087     0.01400
C3258       C  0.91150715  0.79868785  0.08223582     0.42800
C3259       C  0.93579057  0.96675594  0.14631004    -0.06900
N3260       N  0.52927552  0.83610119  0.15830974    -0.25700
H3261       H  0.93245429  0.84343331  0.18549137     0.06900
N3262       N  0.92892501  0.82652570  0.07636426    -0.46900
H3263       H  0.93508224  0.99144732  0.13893870     0.06900
C3264       C  0.56278743  0.95553368  0.16447019     0.42600
C3265       C  0.92799629  0.91016505  0.07492693    -0.06400
Co3266     Co  0.99033514  0.93714614  0.11986435     0.73800
N3267       N  0.93699246  0.92789818  0.17018945    -0.46600
C3268       C  0.57630999  0.79574807  0.08522701     0.42900
N3269       N  0.55865886  0.95121253  0.09577629    -0.46600
Co3270     Co  0.98991807  0.87702393  0.15659741     0.73900
C3271       C  0.55004894  0.82886026  0.17259342    -0.06900
C3272       C  0.92723791  0.78580318  0.09953966    -0.06500
N3273       N  0.02494933  0.90721806  0.08615725    -0.26000
N3274       N  0.93468722  0.78573334  0.15046215    -0.46800
H3275       H  0.56536078  0.76197145  0.11151175     0.06900
C3276       C  0.55102854  0.96295416  0.14526050    -0.06900
Cl3277     Cl  0.98957833  0.87303691  0.12187641    -0.49900
C3278       C  0.92348252  0.95881064  0.16536965     0.42600
H3279       H  0.56526660  0.88752595  0.06355218     0.06800
N3280       N  0.54803950  0.92543067  0.16983621    -0.46600
C3281       C  0.93114921  0.52866067  0.20060073    -0.26300
C3282       C  0.89832153  0.53261849  0.20654828    -0.14400
C3283       C  0.87367664  0.51047180  0.19892261     0.36300
C3284       C  0.88240332  0.48474627  0.18534338    -0.25700
C3285       C  0.91609100  0.98599414  0.17972755    -0.15000
C3286       C  0.94133490  0.00122539  0.19083004     0.37300
N3287       N  0.97500088  0.99125823  0.18789819    -0.89200
H3288       H  0.95288242  0.03815360  0.21325669     0.18500
H3289       H  0.86363571  0.46766143  0.17938390     0.18500
N3290       N  0.83999307  0.51431710  0.20500613    -0.88300
H3291       H  0.98398766  0.98173028  0.20078846     0.35800
H3292       H  0.98852315  0.01367234  0.18447856     0.40900
H3293       H  0.82495201  0.49587693  0.19814471     0.40500
H3294       H  0.83193529  0.53889684  0.20063236     0.35400
C3295       C  0.87769653  0.74056636  0.20473441    -0.26300
C3296       C  0.90177092  0.71525746  0.20867021    -0.14400
C3297       C  0.93315273  0.71773729  0.19981334     0.36300
C3298       C  0.93858661  0.74376606  0.18623049    -0.25700
C3299       C  0.91414911  0.76838368  0.18196787    -0.15000
C3300       C  0.88376812  0.76741521  0.19162898     0.37300
N3301       N  0.85919667  0.79350277  0.18797542    -0.89200
H3302       H  0.85397485  0.73912737  0.21184560     0.18500
H3303       H  0.96236220  0.74515517  0.17915784     0.18500
N3304       N  0.96000416  0.69470085  0.20427083    -0.88300
H3305       H  0.83831496  0.78930530  0.19643669     0.35800
H3306       H  0.85168841  0.79053709  0.17380159     0.40900
H3307       H  0.95377816  0.67744983  0.21514106     0.40500
H3308       H  0.97928600  0.71007423  0.20963545     0.35400
C3309       C  0.61229498  0.52903220  0.18609025    -0.26300
C3310       C  0.59562999  0.53244285  0.20357969    -0.14400
C3311       C  0.56970363  0.50916332  0.20791442     0.36300
C3312       C  0.56292272  0.98275704  0.19686136    -0.25700
C3313       C  0.57510804  0.98227413  0.17809540    -0.15000
C3314       C  0.59781835  0.00822205  0.17236971     0.37300
N3315       N  0.61066696  0.00825135  0.15325327    -0.89200
H3316       H  0.63227532  0.54689979  0.18285245     0.18500
H3317       H  0.54519249  0.96327622  0.20138078     0.18500
N3318       N  0.55178492  0.51298922  0.22551691    -0.88300
H3319       H  0.62456582  0.98550318  0.15140193     0.35800
H3320       H  0.62681616  0.02929178  0.15131853     0.40900
H3321       H  0.53355179  0.49373668  0.22659847     0.40500
H3322       H  0.04075611  0.52910820  0.23075736     0.35400
C3323       C  0.56277445  0.76535944  0.19910808    -0.26300
C3324       C  0.57762446  0.76916422  0.18114748    -0.14400
C3325       C  0.60311737  0.74628634  0.17562780     0.36300
C3326       C  0.61342492  0.71995998  0.18807069    -0.25700
C3327       C  0.59829724  0.71581494  0.20590693    -0.15000
C3328       C  0.57262044  0.73877631  0.21142777     0.37300
N3329       N  0.55547991  0.73495716  0.22917697    -0.89200
H3330       H  0.54261267  0.78231069  0.20332825     0.18500
H3331       H  0.63318246  0.70254716  0.18376867     0.18500
N3332       N  0.61872584  0.74993878  0.15741547    -0.88300
H3333       H  0.06335741  0.74450384  0.24149718     0.35800
H3334       H  0.54560956  0.70970986  0.22969055     0.40900
H3335       H  0.61596525  0.72636409  0.14992543     0.40500
H3336       H  0.64392772  0.75409511  0.15967676     0.35400
C3337       C  0.55128080  0.49620489  0.81656579    -0.26300
C3338       C  0.57406900  0.52168572  0.82286717    -0.14400
C3339       C  0.60695043  0.51968984  0.81607325     0.36300
C3340       C  0.61799667  0.99953498  0.80581510    -0.25700
C3341       C  0.59774136  0.97037218  0.80188676    -0.15000
C3342       C  0.56612653  0.96902614  0.81024560     0.37300
N3343       N  0.04925454  0.94484696  0.80260973    -0.89200
H3344       H  0.52597650  0.49689214  0.82154454     0.18500
H3345       H  0.64195531  0.00141814  0.79901306     0.18500
N3346       N  0.63178436  0.54405647  0.82199777    -0.88300
H3347       H  0.05586656  0.92001406  0.80732113     0.35800
H3348       H  0.05014120  0.94486745  0.78770815     0.40900
H3349       H  0.63313162  0.54396585  0.83688370     0.40500
H3350       H  0.62495887  0.56888864  0.81742958     0.35400
C3351       C  0.55150069  0.76382895  0.81767642    -0.26300
C3352       C  0.57151969  0.73698205  0.82486237    -0.14400
C3353       C  0.60510997  0.73604738  0.81945234     0.36300
C3354       C  0.61794837  0.76283717  0.80779062    -0.25700
C3355       C  0.59785253  0.79025495  0.80135487    -0.15000
C3356       C  0.56395366  0.79013268  0.80603812     0.37300
N3357       N  0.05353912  0.80937338  0.79962759    -0.89200
H3358       H  0.52536827  0.76441358  0.82079655     0.18500
H3359       H  0.64362863  0.76219805  0.80348715     0.18500
N3360       N  0.62595264  0.70803089  0.82557925    -0.88300
H3361       H  0.03740616  0.79469458  0.79111947     0.35800
H3362       H  0.06519437  0.82689533  0.79051464     0.40900
H3363       H  0.62880299  0.71051266  0.84033275     0.40500
H3364       H  0.64952857  0.71050786  0.81964828     0.35400
C3365       C  0.88598764  0.00988354  0.82574365    -0.26300
C3366       C  0.91670482  0.52134040  0.82295067    -0.14400
C3367       C  0.93142524  0.50979498  0.80567547     0.36300
C3368       C  0.91539956  0.48433817  0.79454480    -0.25700
C3369       C  0.89216205  0.96614629  0.80042549    -0.15000
C3370       C  0.87251563  0.98278082  0.81449131     0.37300
N3371       N  0.83909520  0.97221722  0.81778455    -0.89200
H3372       H  0.87104387  0.02186845  0.83682640     0.18500
H3373       H  0.92702854  0.47532296  0.78146448     0.18500
N3374       N  0.96266998  0.52289939  0.79901879    -0.88300
H3375       H  0.83902357  0.94569651  0.82123940     0.35800
H3376       H  0.82588266  0.97523132  0.80513183     0.40900
H3377       H  0.97218902  0.54225719  0.80803257     0.40500
H3378       H  0.95860148  0.53491868  0.78591004     0.35400
C3379       C  0.88400451  0.74124083  0.82841724    -0.26300
C3380       C  0.91573239  0.72826218  0.82462848    -0.14400
C3381       C  0.93412632  0.74197103  0.80930903     0.36300
C3382       C  0.92037661  0.76832865  0.79802378    -0.25700
C3383       C  0.88904782  0.78195176  0.80206400    -0.15000
C3384       C  0.87054295  0.76827073  0.81734058     0.37300
N3385       N  0.83861510  0.78243200  0.82177379    -0.89200
H3386       H  0.87025131  0.73114276  0.84044056     0.18500
H3387       H  0.93431696  0.77874859  0.78615060     0.18500
N3388       N  0.96654446  0.72873833  0.80512534    -0.88300
H3389       H  0.82849390  0.76993483  0.83363292     0.35800
H3390       H  0.82303839  0.77682772  0.81028868     0.40900
H3391       H  0.98192275  0.73568414  0.81648058     0.40500
H3392       H  0.97633716  0.74086871  0.79306266     0.35400
C3393       C  0.66016166  0.79765025  0.06244358    -0.26300
C3394       C  0.65924869  0.76629677  0.05198087    -0.14400
C3395       C  0.63335337  0.74223727  0.05504648     0.36300
C3396       C  0.60764350  0.75112171  0.06747363    -0.25700
C3397       C  0.60734757  0.78364723  0.07680385    -0.15000
C3398       C  0.63463198  0.80652417  0.07499698     0.37300
N3399       N  0.63687599  0.83916279  0.08527831    -0.89200
H3400       H  0.68032670  0.81589273  0.06033654     0.18500
H3401       H  0.58680806  0.73351304  0.06890408     0.18500
N3402       N  0.63222347  0.70912725  0.04535481    -0.88300
H3403       H  0.65805232  0.83820411  0.09375050     0.35800
H3404       H  0.61717283  0.84247724  0.09470872     0.40900
H3405       H  0.65395670  0.69566500  0.04839863     0.40500
H3406       H  0.63129702  0.71335185  0.03067290     0.35400
C3407       C  0.85218632  0.74359244  0.05314965    -0.26300
C3408       C  0.82849557  0.76875145  0.04853426    -0.14400
C3409       C  0.83062769  0.80264804  0.05640753     0.36300
C3410       C  0.85727605  0.81123940  0.06825573    -0.25700
C3411       C  0.88149212  0.78645440  0.07252132    -0.15000
C3412       C  0.87874383  0.75211675  0.06523075     0.37300
N3413       N  0.90393655  0.72682915  0.06909976    -0.89200
H3414       H  0.85034478  0.71764421  0.04691196     0.18500
H3415       H  0.85970763  0.83766709  0.07379045     0.18500
N3416       N  0.80604540  0.82832017  0.05197928    -0.88300
H3417       H  0.89901831  0.70338886  0.06186924     0.35800
H3418       H  0.90279905  0.72118597  0.08364095     0.40900
H3419       H  0.80798555  0.83384813  0.03743914     0.40500
H3420       H  0.81076547  0.85164699  0.05934149     0.40200
C3421       C  0.61053773  0.74912562  0.93044995    -0.26300
C3422       C  0.59177910  0.72003255  0.93608969    -0.14400
C3423       C  0.60140870  0.70134721  0.95245996     0.36300
C3424       C  0.63049319  0.71070689  0.96199127    -0.25700
C3425       C  0.64997384  0.73896905  0.95602841    -0.15000
C3426       C  0.63922237  0.75904430  0.94041999     0.37300
N3427       N  0.65678329  0.78962260  0.93453019    -0.89200
H3428       H  0.60357720  0.76338277  0.91780898     0.18500
H3429       H  0.63786240  0.69589934  0.97437170     0.18500
N3430       N  0.58250362  0.67247385  0.95969148    -0.88300
H3431       H  0.68078924  0.78243074  0.93079065     0.35800
H3432       H  0.65802472  0.80694975  0.94612920     0.40900
H3433       H  0.56082090  0.66851342  0.95196741     0.40500
H3434       H  0.57511039  0.67900399  0.97356460     0.35400
C3435       C  0.86563943  0.68688317  0.94561056    -0.26300
C3436       C  0.88454190  0.70969142  0.93436265    -0.14400
C3437       C  0.87392280  0.74466272  0.93243493     0.36300
C3438       C  0.84491716  0.75586782  0.94177594    -0.25700
C3439       C  0.82618464  0.73273156  0.95297672    -0.15000
C3440       C  0.83693018  0.69791514  0.95484087     0.37300
N3441       N  0.81928978  0.67325619  0.96629113    -0.89200
H3442       H  0.87312963  0.65987049  0.94713697     0.18500
H3443       H  0.83731652  0.78289041  0.94063911     0.18500
N3444       N  0.89151573  0.76896766  0.92079602    -0.88300
H3445       H  0.79524408  0.67104335  0.96106490     0.35800
H3446       H  0.81822866  0.68274049  0.98030248     0.40900
H3447       H  0.89266567  0.75884988  0.90691173     0.40500
H3448       H  0.91552644  0.77131939  0.92606605     0.35400
C3449       C  0.63845560  0.99798746  0.05860708    -0.26300
C3450       C  0.65987590  0.97366283  0.05012216    -0.14400
C3451       C  0.65580487  0.93775972  0.05373203     0.36300
C3452       C  0.62927739  0.92668414  0.06480861    -0.25700
C3453       C  0.60668603  0.95072936  0.07254853    -0.15000
C3454       C  0.61188144  0.98674959  0.06989723     0.37300
N3455       N  0.58926882  0.01178389  0.07768021    -0.89200
H3456       H  0.64167269  0.02561092  0.05585600     0.18500
H3457       H  0.62570641  0.89893576  0.06684592     0.18500
N3458       N  0.67757927  0.91201853  0.04574580    -0.88300
H3459       H  0.57943424  0.02606213  0.06640661     0.35800
H3460       H  0.60258212  0.02905148  0.08639195     0.40900
H3461       H  0.70153297  0.91745552  0.05043934     0.40500
H3462       H  0.67711582  0.91404005  0.03090223     0.35400
C3463       C  0.85052713  0.00359323  0.05797776    -0.26300
C3464       C  0.82848425  0.97942973  0.04981661    -0.14400
C3465       C  0.83202884  0.94354530  0.05360725     0.36300
C3466       C  0.85827808  0.93228538  0.06472740    -0.25700
C3467       C  0.88138263  0.95609199  0.07221479    -0.15000
C3468       C  0.87712575  0.99221894  0.06921507     0.37300
N3469       N  0.90049859  0.01695992  0.07680143    -0.89200
H3470       H  0.84761362  0.03113914  0.05498522     0.18500
H3471       H  0.86113314  0.90451078  0.06709594     0.18500
N3472       N  0.80995533  0.91792393  0.04573263    -0.88300
H3473       H  0.89359453  0.04244983  0.07338625     0.35800
H3474       H  0.92310796  0.01242741  0.07002550     0.40900
H3475       H  0.78608176  0.92330795  0.05056133     0.40500
H3476       H  0.81035170  0.91986744  0.03087972     0.35400
C3477       C  0.64369014  0.55133284  0.95887353    -0.26300
C3478       C  0.65639375  0.51785602  0.95560757    -0.14400
C3479       C  0.64014466  0.49547202  0.94230057     0.36300
C3480       C  0.61238069  0.50789782  0.93220063    -0.25700
C3481       C  0.60039337  0.54198421  0.93522266    -0.15000
C3482       C  0.61614723  0.56343359  0.94893010     0.37300
N3483       N  0.60410342  0.59788444  0.95286184    -0.89200
H3484       H  0.65517638  0.56826198  0.96943674     0.18500
H3485       H  0.60090918  0.49129080  0.92150302     0.18500
N3486       N  0.65121786  0.46041923  0.93855108    -0.88300
H3487       H  0.59810306  0.59945553  0.96735020     0.35800
H3488       H  0.62325866  0.61558125  0.95024991     0.40900
H3489       H  0.67850677  0.98281948  0.93183946     0.40500
H3490       H  0.65499059  0.96081201  0.94772885     0.35400
C3491       C  0.84987978  0.49190660  0.94533949    -0.26300
C3492       C  0.83216995  0.51759285  0.95558309    -0.14400
C3493       C  0.84324374  0.55239187  0.95512189     0.36300
C3494       C  0.87132474  0.56112723  0.94447514    -0.25700
C3495       C  0.88930825  0.53572781  0.93423725    -0.15000
C3496       C  0.87847192  0.50061267  0.93469086     0.37300
N3497       N  0.89551626  0.47430441  0.92379096    -0.89200
H3498       H  0.84160514  0.46499076  0.94591078     0.18500
H3499       H  0.87893530  0.58830043  0.94402434     0.18500
N3500       N  0.82594709  0.57903471  0.96553751    -0.88300
H3501       H  0.88353588  0.45018570  0.92503183     0.35800
H3502       H  0.91880919  0.47124310  0.92988177     0.40900
H3503       H  0.81833824  0.59797692  0.95585436     0.40500
H3504       H  0.84249741  0.59082768  0.97504996     0.35400
C3505       C  0.66026922  0.99413019  0.71092528    -0.26300
C3506       C  0.63739365  0.96836794  0.70572128    -0.14400
C3507       C  0.62332910  0.96883427  0.68730479     0.36300
C3508       C  0.63343523  0.49208630  0.67076999    -0.25700
C3509       C  0.65563465  0.51858886  0.67623917    -0.15000
C3510       C  0.66800984  0.51895646  0.69517823     0.37300
N3511       N  0.68969391  0.54561700  0.70233305    -0.89200
H3512       H  0.67097937  0.99403281  0.72507940     0.18500
H3513       H  0.62330414  0.49178525  0.65647996     0.18500
N3514       N  0.59797610  0.94469578  0.68171079    -0.88300
H3515       H  0.67754105  0.56966194  0.70196238     0.35800
H3516       H  0.71092743  0.54647219  0.69390180     0.40900
H3517       H  0.57843649  0.94702252  0.69139474     0.40500
H3518       H  0.60716626  0.91929243  0.68239099     0.35400
C3519       C  0.67480539  0.73126604  0.69769463    -0.26300
C3520       C  0.66075373  0.73219614  0.67942997    -0.14400
C3521       C  0.64020033  0.76048204  0.67457810     0.36300
C3522       C  0.63382032  0.78691582  0.68820803    -0.25700
C3523       C  0.64848546  0.78629466  0.70633276    -0.15000
C3524       C  0.66975810  0.75848261  0.71094582     0.37300
N3525       N  0.68633978  0.75816635  0.72904727    -0.89200
H3526       H  0.69083733  0.70985283  0.70145663     0.18500
H3527       H  0.61736876  0.80817168  0.68470454     0.18500
N3528       N  0.62514619  0.76178032  0.65605460    -0.88300
H3529       H  0.70237588  0.77962549  0.72944585     0.35800
H3530       H  0.70097576  0.73586144  0.73026820     0.40900
H3531       H  0.64383047  0.76604738  0.64606101     0.40500
H3532       H  0.60933798  0.78326599  0.65517309     0.35400
C3533       C  0.85080238  0.01094717  0.68749395    -0.26300
C3534       C  0.81462474  0.51436453  0.67889557    -0.14400
C3535       C  0.79214221  0.48756181  0.68359946     0.36300
C3536       C  0.80441406  0.96106164  0.69871604    -0.25700
C3537       C  0.83595408  0.96081423  0.70695223    -0.15000
C3538       C  0.85974453  0.98570087  0.70092746     0.37300
N3539       N  0.89310694  0.98600326  0.70788809    -0.89200
H3540       H  0.86884928  0.03022905  0.68309835     0.18500
H3541       H  0.78634683  0.94184613  0.70316817     0.18500
N3542       N  0.76076615  0.48516787  0.67414036    -0.88300
H3543       H  0.90869507  0.98182905  0.69619336     0.35800
H3544       H  0.89752201  0.96541229  0.71716448     0.40900
H3545       H  0.74735817  0.50759571  0.67763768     0.40500
H3546       H  0.74716091  0.46391857  0.67921340     0.35400
C3547       C  0.85001337  0.73396003  0.68712313    -0.26300
C3548       C  0.81719651  0.72752325  0.68192186    -0.14400
C3549       C  0.79165680  0.74655643  0.69079718     0.36300
C3550       C  0.79922144  0.77206016  0.70460050    -0.25700
C3551       C  0.83202774  0.77881667  0.70968989    -0.15000
C3552       C  0.85765123  0.75948411  0.70091016     0.37300
N3553       N  0.89154533  0.76573596  0.70556975    -0.89200
H3554       H  0.86974325  0.71940209  0.68030185     0.18500
H3555       H  0.77947155  0.78681586  0.71127897     0.18500
N3556       N  0.75797797  0.73983402  0.68585584    -0.88300
H3557       H  0.89464965  0.76155006  0.72016162     0.35800
H3558       H  0.89697571  0.79192491  0.70278064     0.40900
H3559       H  0.74758309  0.76312250  0.68106510     0.40500
H3560       H  0.74563833  0.73254989  0.69829279     0.35400
C3561       C  0.69677831  0.99352940  0.31097135    -0.26300
C3562       C  0.67161785  0.98005425  0.32259293    -0.14400
C3563       C  0.63915797  0.99321872  0.32087692     0.36300
C3564       C  0.62994110  0.52144086  0.31005688    -0.25700
C3565       C  0.65439603  0.53175407  0.29706242    -0.15000
C3566       C  0.68613741  0.51686430  0.29818527     0.37300
N3567       N  0.71243408  0.52769842  0.28588495    -0.89200
H3568       H  0.72178154  0.98391003  0.31238913     0.18500
H3569       H  0.60568162  0.53319779  0.30939375     0.18500
N3570       N  0.61222790  0.98087311  0.33240693    -0.88300
H3571       H  0.71589556  0.55461440  0.28768703     0.35800
H3572       H  0.70557247  0.52285691  0.27175754     0.40900
H3573       H  0.61965244  0.96135098  0.34173754     0.40500
H3574       H  0.59488485  0.96941808  0.32325171     0.35400
C3575       C  0.70008919  0.74139822  0.31909069    -0.26300
C3576       C  0.67568094  0.76574115  0.32418027    -0.14400
C3577       C  0.64445733  0.76408626  0.31553673     0.36300
C3578       C  0.63813160  0.73798770  0.30179729    -0.25700
C3579       C  0.66251331  0.71367000  0.29663446    -0.15000
C3580       C  0.69386361  0.71542592  0.30525519     0.37300
N3581       N  0.71907953  0.69083466  0.29991293    -0.89200
H3582       H  0.72415784  0.74300831  0.32575254     0.18500
H3583       H  0.61406119  0.73634793  0.29515246     0.18500
N3584       N  0.61932879  0.78876945  0.32085462    -0.88300
H3585       H  0.74070148  0.69564129  0.30763223     0.35800
H3586       H  0.72481818  0.69496411  0.28557272     0.40900
H3587       H  0.61345040  0.78454870  0.33517448     0.40500
H3588       H  0.59776270  0.78407252  0.31307814     0.35400
C3589       C  0.81603227  0.98435862  0.31087212    -0.26300
C3590       C  0.83296569  0.98176267  0.32823179    -0.14400
C3591       C  0.85192517  0.50573593  0.33152551     0.36300
C3592       C  0.85978201  0.53081840  0.31766625    -0.25700
C3593       C  0.84222123  0.53234295  0.30045887    -0.15000
C3594       C  0.81629948  0.50838283  0.29707777     0.37300
N3595       N  0.79630337  0.51011576  0.28029636    -0.89200
H3596       H  0.79569653  0.96680305  0.30771070     0.18500
H3597       H  0.87942634  0.54949200  0.32031637     0.18500
N3598       N  0.86960123  0.50485473  0.34925650    -0.88300
H3599       H  0.81974289  0.01003757  0.26902285     0.35800
H3600       H  0.78593008  0.53507865  0.27964670     0.40900
H3601       H  0.88857958  0.97897964  0.35018182     0.40500
H3602       H  0.88742897  0.52465387  0.34974980     0.35400
C3603       C  0.81341722  0.76763426  0.31020291    -0.26300
C3604       C  0.83005246  0.76846083  0.32777975    -0.14400
C3605       C  0.85304681  0.74181236  0.33191486     0.36300
C3606       C  0.85862109  0.71519714  0.31842955    -0.25700
C3607       C  0.84186638  0.71436282  0.30095129    -0.15000
C3608       C  0.81867149  0.74081818  0.29684475     0.37300
N3609       N  0.79984884  0.74127395  0.27946406    -0.89200
H3610       H  0.79523737  0.78741369  0.30698194     0.18500
H3611       H  0.87652375  0.69505277  0.32153647     0.18500
N3612       N  0.87140809  0.74095732  0.34943586    -0.88300
H3613       H  0.77489540  0.73970165  0.28317597     0.35800
H3614       H  0.80458883  0.71945271  0.27088024     0.40900
H3615       H  0.86632920  0.76249846  0.35816111     0.40500
H3616       H  0.89644202  0.74277268  0.34594147     0.35400
C3617       C  0.59906747  0.74390538  0.55240488    -0.26300
C3618       C  0.57889844  0.71580351  0.54675599    -0.14400
C3619       C  0.58500114  0.68220669  0.55403713     0.36300
C3620       C  0.61216173  0.67698268  0.56590545    -0.25700
C3621       C  0.63316715  0.70479681  0.57101150    -0.15000
C3622       C  0.62602856  0.73876106  0.56452682     0.37300
N3623       N  0.64670815  0.76802075  0.56913411    -0.89200
H3624       H  0.59438083  0.76977156  0.54687714     0.18500
H3625       H  0.61748238  0.65075982  0.57073748     0.18500
N3626       N  0.56462617  0.65284371  0.54910471    -0.88300
H3627       H  0.67071433  0.76248119  0.56458195     0.35800
H3628       H  0.64682577  0.77131095  0.58394185     0.40900
H3629       H  0.54049427  0.65817092  0.55351035     0.40500
H3630       H  0.56473907  0.64981252  0.53427937     0.35400
C3631       C  0.87449426  0.68282655  0.56830574    -0.26300
C3632       C  0.85259581  0.70874168  0.57472314    -0.14400
C3633       C  0.85859838  0.74407499  0.57037599     0.36300
C3634       C  0.88620555  0.75265619  0.55917657    -0.25700
C3635       C  0.90737721  0.72648502  0.55228265    -0.15000
C3636       C  0.90179632  0.69134332  0.55718699     0.37300
N3637       N  0.92282895  0.66377651  0.55049051    -0.89200
H3638       H  0.86982807  0.65559630  0.57154021     0.18500
H3639       H  0.89059942  0.77956706  0.55519192     0.18500
N3640       N  0.83588162  0.77072426  0.57647237    -0.88300
H3641       H  0.92304637  0.66398503  0.53559004     0.35800
H3642       H  0.94676949  0.66871453  0.55534084     0.40900
H3643       H  0.81345854  0.76605559  0.56955539     0.40500
H3644       H  0.84400153  0.79532695  0.57205408     0.35400
C3645       C  0.60107031  0.78835809  0.46059350    -0.26300
C3646       C  0.58281381  0.76077240  0.45281021    -0.14400
C3647       C  0.59129967  0.74734501  0.43465621     0.36300
C3648       C  0.61838107  0.76191416  0.42474344    -0.25700
C3649       C  0.63694813  0.78964463  0.43267693    -0.15000
C3650       C  0.62765939  0.80290829  0.45093412     0.37300
N3651       N  0.64462834  0.83097405  0.46038386    -0.89200
H3652       H  0.59444409  0.79886452  0.47449842     0.18500
H3653       H  0.62484976  0.75165666  0.41079301     0.18500
N3654       N  0.57236127  0.71927363  0.42639618    -0.88300
H3655       H  0.64245276  0.85360939  0.45226376     0.35800
H3656       H  0.66935678  0.82423882  0.46216961     0.40900
H3657       H  0.57539746  0.69737162  0.43500315     0.40500
H3658       H  0.58161520  0.71259279  0.41291969     0.35400
C3659       C  0.89000916  0.80957626  0.46497125    -0.26300
C3660       C  0.90850318  0.78049411  0.45928656    -0.14400
C3661       C  0.89864585  0.76094092  0.44312244     0.36300
C3662       C  0.87056771  0.77097285  0.43289520    -0.25700
C3663       C  0.85160701  0.79995766  0.43868709    -0.15000
C3664       C  0.86163745  0.81931157  0.45502697     0.37300
N3665       N  0.84281473  0.84841895  0.46196988    -0.89200
H3666       H  0.89712972  0.82424960  0.47761835     0.18500
H3667       H  0.86326729  0.75550672  0.42060307     0.18500
N3668       N  0.91610264  0.73019665  0.43721222    -0.88300
H3669       H  0.85827687  0.87030125  0.46254213     0.35800
H3670       H  0.83523725  0.84298433  0.47589140     0.40900
H3671       H  0.91617304  0.71263669  0.44854504     0.40500
H3672       H  0.94049522  0.73718950  0.43422961     0.35400
C3673       C  0.59763167  0.54298147  0.53979401    -0.26300
C3674       C  0.57976055  0.51564786  0.54783803    -0.14400
C3675       C  0.59012473  0.50136821  0.56529705     0.36300
C3676       C  0.61828333  0.51503274  0.57433813    -0.25700
C3677       C  0.63671515  0.54220882  0.56603475    -0.15000
C3678       C  0.62621634  0.55573434  0.54828709     0.37300
N3679       N  0.64474052  0.58155726  0.53822286    -0.89200
H3680       H  0.58989895  0.55379505  0.52627753     0.18500
H3681       H  0.62593974  0.50408600  0.58780738     0.18500
N3682       N  0.57321141  0.47251473  0.57379102    -0.88300
H3683       H  0.62959452  0.60326295  0.53611741     0.35800
H3684       H  0.65119810  0.57128298  0.52485666     0.40900
H3685       H  0.57270294  0.45187871  0.56391907     0.40500
H3686       H  0.54893988  0.47990600  0.57672797     0.35400
C3687       C  0.89324168  0.49445599  0.56719065    -0.26300
C3688       C  0.90990469  0.51571640  0.55411864    -0.14400
C3689       C  0.89930532  0.55030675  0.55141653     0.36300
C3690       C  0.87164485  0.56258680  0.56115446    -0.25700
C3691       C  0.85336501  0.54092271  0.57341376    -0.15000
C3692       C  0.86504069  0.50662186  0.57682627     0.37300
N3693       N  0.84835313  0.48316298  0.58938834    -0.89200
H3694       H  0.90136929  0.46781163  0.56927661     0.18500
H3695       H  0.86418705  0.58925004  0.55862661     0.18500
N3696       N  0.91573333  0.57324995  0.53841155    -0.88300
H3697       H  0.82420148  0.47958421  0.58453152     0.35800
H3698       H  0.84781197  0.49436273  0.60302970     0.40900
H3699       H  0.94038866  0.57561399  0.54255309     0.40500
H3700       H  0.91495742  0.56208943  0.52475287     0.35400
C3701       C  0.57799840  0.95628763  0.44166735    -0.26300
C3702       C  0.57993488  0.98913226  0.45061027    -0.14400
C3703       C  0.60705609  0.01119156  0.44671855     0.36300
C3704       C  0.63323606  0.99853867  0.43531250    -0.25700
C3705       C  0.63242204  0.96443194  0.42776739    -0.15000
C3706       C  0.60377397  0.94382219  0.43028024     0.37300
N3707       N  0.60012815  0.91014372  0.42139281    -0.89200
H3708       H  0.55683016  0.93959021  0.44422378     0.18500
H3709       H  0.65503784  0.01450737  0.43322087     0.18500
N3710       N  0.60842880  0.04562757  0.45502448    -0.88300
H3711       H  0.61805492  0.89325024  0.42663177     0.35800
H3712       H  0.60367475  0.91291117  0.40672180     0.40900
H3713       H  0.58882736  0.05992637  0.44940295     0.40500
H3714       H  0.63410972  0.54949584  0.46809287     0.35400
C3715       C  0.87485628  0.92972713  0.43728347    -0.26300
C3716       C  0.85386975  0.95758817  0.43278869    -0.14400
C3717       C  0.86281303  0.99189575  0.43826278     0.36300
C3718       C  0.89073649  0.99719441  0.44971553    -0.25700
C3719       C  0.90991588  0.96877377  0.45559751    -0.15000
C3720       C  0.90264458  0.93495111  0.44864909     0.37300
N3721       N  0.92216794  0.90529811  0.45371393    -0.89200
H3722       H  0.86859677  0.90335173  0.43278609     0.18500
H3723       H  0.89656585  0.02329513  0.45483448     0.18500
N3724       N  0.84299005  0.02137186  0.43335750    -0.88300
H3725       H  0.92196073  0.90292238  0.46854485     0.35800
H3726       H  0.94644478  0.90982555  0.44929964     0.40900
H3727       H  0.81922660  0.01755611  0.43878087     0.40500
H3728       H  0.84153348  0.02243573  0.41849347     0.35400
loop_ 
_geom_bond_atom_site_label_1 
_geom_bond_atom_site_label_2 
_geom_bond_distance 
_geom_bond_site_symmetry_2 
_ccdc_geom_bond_type 
N1           H33   1.043       .  S
N1            C5   1.352       .  A
N1          C938   1.352       .  A
N2           C10   1.351   1_655  A
N2         C1873   1.351       .  A
N3           H34   1.038       .  S
N3            C8   1.353       .  A
N3          C939   1.354       .  A
N4           C12   1.352   1_655  A
N4         C1875   1.352       .  A
C5           C13   1.389       .  A
C5           C21   1.418       .  A
C6          N933   1.356       .  A
C6           C22   1.418       .  A
C6           C14   1.386   1_545  A
C7          N935   1.354       .  A
C7           C15   1.388       .  A
C7           C24   1.419       .  A
C8           C23   1.415       .  A
C8           C16   1.386       .  A
C9         N1866   1.346       .  A
C9           C21   1.409       .  A
C9           C17   1.386       .  A
C10          C24   1.414       .  A
C10          C18   1.386       .  A
C11        N1868   1.355       .  A
C11          C19   1.384       .  A
C11          C22   1.416       .  A
C12          C20   1.387   1_565  A
C12          C23   1.414       .  A
C13         C946   1.376       .  A
C13          H25   1.082       .  S
C14         C945   1.375       .  A
C14          H26   1.082       .  S
C15         C948   1.375       .  A
C15          H27   1.082       .  S
C16         C947   1.376       .  A
C16          H28   1.082       .  S
C17        C1882   1.376       .  A
C17          H29   1.082       .  S
C18        C1881   1.375   1_455  A
C18          H30   1.082       .  S
C19        C1884   1.372       .  A
C19          H31   1.082       .  S
C20        C1883   1.372   1_455  A
C20          H32   1.082       .  S
C21         C923   1.482       .  S
C22         C892   1.496       .  S
C23         C878   1.486   1_565  S
C24         C906   1.492       .  S
N35          H67   1.039       .  S
N35          C40   1.351       .  A
N35          C39   1.354       .  A
N36          C44   1.347       .  A
N36        C1907   1.350       .  A
N37          H68   1.039       .  S
N37          C42   1.354       .  A
N37          C41   1.350       .  A
N38          C46   1.352       .  A
N38        C1909   1.348       .  A
C39          C47   1.387       .  A
C39          C55   1.415       .  A
C40          C56   1.415       .  A
C40          C48   1.388       .  A
C41          C49   1.387       .  A
C41          C58   1.411       .  A
C42          C57   1.415       .  A
C42          C50   1.388       .  A
C43        N1900   1.346   1_455  A
C43          C55   1.405       .  A
C43          C51   1.386       .  A
C44          C58   1.408       .  A
C44          C52   1.387       .  A
C45        N1902   1.349   1_455  A
C45          C53   1.387       .  A
C45          C56   1.411       .  A
C46          C54   1.385       .  A
C46          C57   1.412       .  A
C47          C48   1.376       .  A
C47          H59   1.082       .  S
C48          H60   1.083       .  S
C49          C50   1.372       .  A
C49          H61   1.082       .  S
C50          H62   1.082       .  S
C51        C1916   1.374   1_455  A
C51          H63   1.082       .  S
C52        C1915   1.377       .  A
C52          H64   1.082       .  S
C53        C1918   1.377   1_455  A
C53          H65   1.082       .  S
C54        C1917   1.378       .  A
C54          H66   1.082       .  S
C55         C822   1.481       .  S
C56         C850   1.485       .  S
C57         C864   1.491       .  S
C58         C839   1.475       .  S
C69          N87   1.352       .  A
C69         C106   1.448       .  S
C69         C920   1.467       .  S
N70          N87   1.329       .  A
N70          N92   1.319       .  A
N70        Co107   2.098       .  S
C71          N96   1.346       .  A
C71         H116   1.081       .  S
C71         C109   1.470       .  S
H72         C113   1.081       .  S
C73          N97   1.339       .  A
C73         H102   1.082       .  S
C73          C77   1.463       .  S
Co74         N92   2.058       .  S
Co74         N82   2.082       .  S
Co74        N114   2.077       .  S
Co74         N90   2.068       .  S
Co74       Cl118   2.441       .  S
N75         C113   1.347       .  A
N75          N82   1.319       .  A
N75         Co76   2.097       .  S
Co76         N79   2.081       .  S
Co76         N96   2.093       .  S
Co76         N83   2.084       .  S
Co76       Cl118   2.461       .  S
C77         N115   1.351       .  A
C77         C808   1.478       .  S
N78          N85   1.321       .  A
N78         N108   1.324       .  A
N78        Co111   2.094       .  S
N79          N97   1.321       .  A
N79         N115   1.324       .  A
N80         C109   1.345       .  A
N80          N90   1.319       .  A
H81         C106   1.082       .  S
N82         N103   1.324       .  A
N83         N101   1.321       .  A
N83          N88   1.323       .  A
C84          N88   1.350       .  A
C84         C112   1.466       .  S
C84         C780   1.482       .  S
N85         C100   1.340       .  A
N85        Co107   2.083       .  S
C86         N114   1.334       .  A
C86         H120   1.079       .  S
C86          C89   1.451       .  S
C89         N110   1.355       .  A
C89         C909   1.475       .  S
N90          N96   1.317       .  A
N91         C117   1.340       .  A
N91          N93   1.320       .  A
N91        Co107   2.087       .  S
N92         C106   1.333       .  A
N93         N121   1.324       .  A
N93        Co111   2.085       .  S
H94         C117   1.082       .  S
H95         C112   1.082       .  S
N97        Co111   2.088       .  S
N98         N110   1.330       .  A
N98         N114   1.319       .  A
N98        Co107   2.097       .  S
C99         N103   1.350       .  A
C99         C113   1.466       .  S
C99         C867   1.487       .  S
C100        H104   1.082       .  S
C100        C119   1.461       .  S
N101        C112   1.344       .  A
N101       Co111   2.097       .  S
C105        N121   1.351       .  A
C105        C117   1.463       .  S
C105        C766   1.474       .  S
Co107      Cl118   2.458       .  S
N108        C119   1.353       .  A
C109        C853   1.487       .  S
Co111      Cl118   2.441       .  S
C119        C794   1.478       .  S
C122        N140   1.360       .  A
C122        C159   1.453       .  S
C122        C895   1.491       .  S
N123        N140   1.334       .  A
N123        N145   1.320       .  A
N123       Co160   2.116       .  S
C124        N149   1.344       .  A
C124        H169   1.081       .  S
C124        C162   1.462       .  S
H125        C166   1.080       .  S
C126        N150   1.341       .  A
C126        H155   1.082       .  S
C126        C130   1.465       .  S
Co127       N145   2.073       .  S
Co127       N135   2.067       .  S
Co127       N167   2.063       .  S
Co127       N143   2.073       .  S
Co127      Cl171   2.435       .  S
N128        C166   1.344       .  A
N128        N135   1.316       .  A
N128       Co129   2.081       .  S
Co129       N132   2.082       .  S
Co129       N149   2.087       .  S
Co129       N136   2.074       .  S
Co129      Cl171   2.461       .  S
C130        N168   1.351       .  A
C130        C752   1.473       .  S
N131        N138   1.321       .  A
N131        N161   1.325       .  A
N131       Co164   2.089       .  S
N132        N150   1.319       .  A
N132        N168   1.323       .  A
N133        C162   1.347       .  A
N133        N143   1.321       .  A
H134        C159   1.081       .  S
N135        N156   1.317       .  A
N136        N154   1.317       .  A
N136        N141   1.323       .  A
C137        N141   1.350       .  A
C137        C165   1.467       .  S
C137        C724   1.481       .  S
N138        C153   1.340       .  A
N138       Co160   2.084       .  S
C139        N167   1.333       .  A
C139        H173   1.081       .  S
C139        C142   1.456       .  S
C142        N163   1.357       .  A
C142        C881   1.486       .  S
N143        N149   1.319       .  A
N144        C170   1.341       .  A
N144        N146   1.321       .  A
N144       Co160   2.091       .  S
N145        C159   1.334       .  A
N146        N174   1.320       .  A
N146       Co164   2.075       .  S
H147        C170   1.082       .  S
H148        C165   1.082       .  S
N150       Co164   2.089       .  S
N151        N163   1.331       .  A
N151        N167   1.318       .  A
N151       Co160   2.104       .  S
C152        N156   1.346       .  A
C152        C166   1.469       .  S
C152        C836   1.482       .  S
C153        H157   1.082       .  S
C153        C172   1.462       .  S
N154        C165   1.339       .  A
N154       Co164   2.086       .  S
C158        N174   1.347       .  A
C158        C170   1.465       .  S
C158        C713   1.478       .  S
Co160      Cl171   2.463       .  S
N161        C172   1.350       .  A
C162        C825   1.473       .  S
Co164      Cl171   2.432       .  S
C172        C738   1.478       .  S
N175        H207   1.035       .  S
N175        C179   1.356       .  A
N175       C1112   1.355   1_554  A
N176        C183   1.349       .  A
N176        C184   1.350       .  A
N177        H208   1.036       .  S
N177        C181   1.356       .  A
N177       C1114   1.353   1_554  A
N178        C185   1.354       .  A
N178        C186   1.356       .  A
C179        C187   1.387       .  A
C179        C195   1.421       .  A
C180       N1107   1.352   1_556  A
C180        C196   1.416       .  A
C180       C1120   1.389   1_556  A
C181        C189   1.389       .  A
C181        C198   1.420       .  A
C182       N1109   1.356   1_556  A
C182        C197   1.421       .  A
C182        C190   1.389       .  A
C183        C195   1.412       .  A
C183        C191   1.386       .  A
C184        C198   1.411       .  A
C184        C192   1.386       .  A
C185        C193   1.387       .  A
C185        C196   1.424       .  A
C186        C194   1.386       .  A
C186        C197   1.423       .  A
C187        C188   1.372   1_554  A
C187        H199   1.082       .  S
C188       C1112   1.388       .  A
C188       H1132   1.081       .  S
C189       C1122   1.373   1_554  A
C189        H201   1.082       .  S
C190       C1121   1.369   1_556  A
C190        H202   1.082       .  S
C191        C192   1.374       .  A
C191        H203   1.082       .  S
C192        H204   1.082       .  S
C193        C194   1.381       .  A
C193        H205   1.082       .  S
C194        H206   1.082       .  S
C195        C668   1.489       .  S
C196        C696   1.495       .  S
C197        C682   1.501       .  S
C198        C654   1.488       .  S
H200       C1120   1.082   1_556  S
N209        H241   1.039       .  S
N209        C214   1.351   1_554  A
N209        C213   1.352       .  A
N210        C217   1.347       .  A
N210        C218   1.347       .  A
N211        H242   1.040       .  S
N211        C216   1.351   1_554  A
N211        C215   1.354       .  A
N212        C219   1.356       .  A
N212        C220   1.354       .  A
C213        C221   1.388       .  A
C213        C229   1.414       .  A
C214        C230   1.412       .  A
C214        C222   1.387       .  A
C215        C223   1.387       .  A
C215        C232   1.416       .  A
C216        C231   1.411       .  A
C216        C224   1.387       .  A
C217        C229   1.407       .  A
C217        C225   1.386       .  A
C218        C232   1.407       .  A
C218        C226   1.386       .  A
C219        C227   1.386       .  A
C219        C230   1.421       .  A
C220        C228   1.386       .  A
C220        C231   1.420       .  A
C221        C222   1.375   1_554  A
C221        H233   1.082       .  S
C222        H234   1.083       .  S
C223        C224   1.377   1_554  A
C223        H235   1.082       .  S
C224        H236   1.082       .  S
C225        C226   1.377       .  A
C225        H237   1.082       .  S
C226        H238   1.082       .  S
C227        C228   1.382       .  A
C227        H239   1.082       .  S
C228        H240   1.082       .  S
C229        C598   1.480       .  S
C230        C629   1.500       .  S
C231        C643   1.492       .  S
C232        C612   1.486       .  S
C243        N261   1.337       .  A
C243        C280   1.489       .  S
C243        C699   1.495       .  S
N244        N261   1.313       .  A
N244        N266   1.320       .  A
N244       Co281   2.053       .  S
C245        N270   1.354       .  A
C245        H290   1.080       .  S
C245        C283   1.483       .  S
H246        C287   1.081       .  S
C247        N271   1.353       .  A
C247        H276   1.081       .  S
C247        C251   1.473       .  S
Co248       N266   2.130       .  S
Co248       N288   2.076       .  S
Co248      N2120   2.115       .  S
Co248      N2128   2.080       .  S
Co248      Cl292   2.468       .  S
N249        C287   1.328       .  A
N249        N256   1.321       .  A
N249       Co250   2.063       .  S
Co250       N253   2.077       .  S
Co250       N270   2.116       .  S
Co250       N257   2.104       .  S
Co250     Cl2156   2.443   1_455  S
C251        N289   1.339       .  A
C251        C626   1.478       .  S
N252        N259   1.320       .  A
N252        N282   1.335       .  A
N252       Co285   2.115       .  S
N253        N271   1.323       .  A
N253        N289   1.319       .  A
N254        C283   1.342       .  A
N254        N264   1.317       .  A
H255        C280   1.080       .  S
N256        N277   1.338       .  A
N256      Co2112   2.131   1_455  S
N257        N275   1.320       .  A
N257        N262   1.333       .  A
C258        N262   1.361       .  A
C258        C286   1.449       .  S
C258        C556   1.486       .  S
N259        C274   1.330       .  A
N259       Co281   2.067       .  S
C260        N288   1.335       .  A
C260        H294   1.082       .  S
C260        C263   1.449       .  S
C263        N284   1.355       .  A
C263        C570   1.474       .  S
N264        N270   1.320       .  A
N264      Co2112   2.068   1_455  S
N265        C291   1.349       .  A
N265        N267   1.320       .  A
N265       Co281   2.096       .  S
N266        C280   1.359       .  A
N267        N295   1.320       .  A
N267       Co285   2.076       .  S
H268        C291   1.081       .  S
H269        C286   1.081       .  S
N271      Co2149   2.111   1_455  S
N272        N284   1.330       .  A
N272        N288   1.321       .  A
N272       Co281   2.097       .  S
C273        N277   1.367       .  A
C273        C287   1.443       .  S
C273        C685   1.491       .  S
C274        H278   1.082       .  S
C274        C293   1.444       .  S
N275        C286   1.327       .  A
N275      Co2149   2.062   1_455  S
C279        N295   1.342       .  A
C279        C291   1.468       .  S
C279        C584   1.471       .  S
Co281      Cl292   2.436       .  S
N282        C293   1.363       .  A
C283        C542   1.495       .  S
Co285      N2135   2.115       .  S
Co285      N2139   2.058       .  S
Co285      Cl292   2.464       .  S
Cl292     Co2114   2.439       .  S
C293        C640   1.486       .  S
N296        H328   1.035       .  S
N296        C301   1.352       .  A
N296        C300   1.354       .  A
N297        C304   1.350       .  A
N297        C305   1.349       .  A
N298        H329   1.041       .  S
N298        C303   1.352       .  A
N298        C302   1.350       .  A
N299        C306   1.349       .  A
N299        C307   1.350       .  A
C300        C308   1.387       .  A
C300        C316   1.418       .  A
C301        C317   1.417       .  A
C301        C309   1.387       .  A
C302        C310   1.387       .  A
C302        C319   1.411       .  A
C303        C318   1.410       .  A
C303        C311   1.386       .  A
C304        C316   1.411       .  A
C304        C312   1.387       .  A
C305        C319   1.410       .  A
C305        C313   1.386       .  A
C306        C314   1.388       .  A
C306        C317   1.411       .  A
C307        C315   1.385       .  A
C307        C318   1.408       .  A
C308        C309   1.381       .  A
C308        H320   1.082       .  S
C309        H321   1.082       .  S
C310        C311   1.378       .  A
C310        H322   1.083       .  S
C311        H323   1.082       .  S
C312        C313   1.371       .  A
C312       H1256   1.082       .  S
C313       H1257   1.082       .  S
C314        C315   1.371       .  A
C314        H326   1.082       .  S
C315        H327   1.082       .  S
C316        C545   1.487       .  S
C317        C559   1.482       .  S
C318        C727   1.489       .  S
C319        C710   1.483       .  S
H324       C1244   1.082   1_545  S
H325       C1245   1.082   1_545  S
N330        H362   1.034       .  S
N330        C335   1.353       .  A
N330        C334   1.354       .  A
N331        C338   1.352       .  A
N331        C339   1.351       .  A
N332        H363   1.035       .  S
N332        C337   1.354       .  A
N332        C336   1.354       .  A
N333        C340   1.354       .  A
N333        C341   1.355       .  A
C334        C342   1.387       .  A
C334        C350   1.415       .  A
C335        C351   1.417       .  A
C335        C343   1.388       .  A
C336        C344   1.388       .  A
C336        C353   1.418       .  A
C337        C352   1.415       .  A
C337        C345   1.386       .  A
C338        C350   1.413       .  A
C338        C346   1.385       .  A
C339        C353   1.416       .  A
C339        C347   1.388       .  A
C340        C348   1.387       .  A
C340        C351   1.420       .  A
C341        C349   1.386       .  A
C341        C352   1.419       .  A
C342        C343   1.374       .  A
C342        H354   1.082       .  S
C343        H355   1.082       .  S
C344        C345   1.376       .  A
C344       H1288   1.082       .  S
C345       H1289   1.082       .  S
C346        C347   1.372       .  A
C346        H358   1.082       .  S
C347        H359   1.082       .  S
C348        C349   1.376       .  A
C348        H360   1.082       .  S
C349        H361   1.082       .  S
C350        C755   1.487       .  S
C351        C587   1.491       .  S
C352        C573   1.495       .  S
C353        C741   1.491       .  S
H356       C1276   1.082   1_545  S
H357       C1277   1.082   1_545  S
N364        H396   1.040       .  S
N364        C369   1.353       .  A
N364        C368   1.353       .  A
N365        C372   1.352       .  A
N365        C373   1.351       .  A
N366        H397   1.040       .  S
N366        C371   1.354       .  A
N366        C370   1.354       .  A
N367        C374   1.352       .  A
N367        C375   1.352       .  A
C368        C376   1.387       .  A
C368        C384   1.418       .  A
C369        C385   1.415       .  A
C369        C377   1.387       .  A
C370        C378   1.387       .  A
C370        C387   1.415       .  A
C371        C386   1.417       .  A
C371        C379   1.388       .  A
C372        C384   1.417       .  A
C372        C380   1.387       .  A
C373        C387   1.411       .  A
C373        C381   1.384       .  A
C374        C382   1.386       .  A
C374        C385   1.414       .  A
C375        C383   1.387       .  A
C375        C386   1.415       .  A
C376        C377   1.378       .  A
C376        H388   1.082       .  S
C377        H389   1.082       .  S
C378        C379   1.377       .  A
C378        H390   1.082       .  S
C379        H391   1.082       .  S
C380        C381   1.374       .  A
C380        H392   1.082       .  S
C381        H393   1.082       .  S
C382        C383   1.374       .  A
C382       H1326   1.082   1_545  S
C383       H1327   1.082   1_545  S
C384        C783   1.498       .  S
C385        C769   1.490       .  S
C386        C514   1.493       .  S
C387        C531   1.489       .  S
H394       C1314   1.082       .  S
H395       C1315   1.082       .  S
N398        H430   1.039       .  S
N398        C403   1.352       .  A
N398        C402   1.352       .  A
N399        C406   1.348       .  A
N399        C407   1.349       .  A
N400        H431   1.039       .  S
N400        C405   1.349       .  A
N400        C404   1.352       .  A
N401        C408   1.351       .  A
N401        C409   1.350       .  A
C402        C410   1.388       .  A
C402        C418   1.415       .  A
C403        C419   1.411       .  A
C403        C411   1.386       .  A
C404        C412   1.387       .  A
C404        C421   1.412       .  A
C405        C420   1.408       .  A
C405        C413   1.386       .  A
C406        C418   1.410       .  A
C406        C414   1.387       .  A
C407        C421   1.408       .  A
C407        C415   1.385       .  A
C408        C416   1.386       .  A
C408        C419   1.411       .  A
C409        C417   1.387       .  A
C409        C420   1.411       .  A
C410        C411   1.378       .  A
C410       H1354   1.082   1_545  S
C411       H1355   1.082   1_545  S
C412        C413   1.376       .  A
C412        H424   1.082       .  S
C413        H425   1.083       .  S
C414        C415   1.376       .  A
C414        H426   1.082       .  S
C415        H427   1.083       .  S
C416        C417   1.373       .  A
C416        H428   1.082       .  S
C417        H429   1.082       .  S
C418        C797   1.482       .  S
C419        C486   1.485       .  S
C420        C500   1.479       .  S
C421        C811   1.484       .  S
H422       C1342   1.082       .  S
H423       C1343   1.082       .  S
C432        N450   1.355       .  A
C432        C469   1.451       .  S
C432        C671   1.478       .  S
N433        N450   1.330       .  A
N433        N455   1.319       .  A
N433       Co470   2.099       .  S
C434       N2323   1.344       .  A
C434        H479   1.081       .  S
C434        C472   1.458       .  S
H435        C476   1.081       .  S
C436        N460   1.338       .  A
C436        H465   1.082       .  S
C436        C440   1.461       .  S
Co437       N455   2.070       .  S
Co437       N445   2.074       .  S
Co437       N477   2.077       .  S
Co437       N453   2.073       .  S
Co437      Cl481   2.436       .  S
N438        C476   1.348       .  A
N438        N445   1.319       .  A
N438       Co439   2.098       .  S
Co439       N442   2.075       .  S
Co439       N459   2.082       .  S
Co439      N2310   2.092       .  S
Co439      Cl481   2.462       .  S
C440        N478   1.350       .  A
C440        C503   1.462       .  S
N441        N448   1.319       .  A
N441        N471   1.323       .  A
N441       Co474   2.082       .  S
N442        N460   1.318       .  A
N442        N478   1.320       .  A
N443        C472   1.346       .  A
N443       N2317   1.320       .  A
H444        C469   1.081       .  S
N445        N466   1.321       .  A
N446        N464   1.321       .  A
N446        N451   1.325       .  A
N446      Co2303   2.092   1_455  S
C447        N451   1.352       .  A
C447        C475   1.464       .  S
C447        C528   1.477       .  S
N448        C463   1.340       .  A
N448       Co470   2.087       .  S
C449       N2341   1.335       .  A
C449        H483   1.081       .  S
C449        C452   1.454       .  S
C452        N473   1.355       .  A
C452        C657   1.483       .  S
N453        N459   1.318       .  A
N453       N2307   1.320       .  A
N454        C480   1.342       .  A
N454        N456   1.320       .  A
N454      Co2334   2.088   1_455  S
N455        C469   1.334       .  A
N456        N484   1.325       .  A
N456      Co2338   2.095   1_455  S
H457        C480   1.082       .  S
H458        C475   1.082       .  S
N459       C2298   1.344       .  A
N460       Co474   2.079       .  S
N461        N477   1.320       .  A
N461       N2337   1.328       .  A
N461       Co470   2.090       .  S
C462        N466   1.345       .  A
C462        C476   1.464       .  S
C462        C615   1.472       .  S
C463        H467   1.082       .  S
C463        C482   1.461       .  S
N464        C475   1.341       .  A
N464      Co2338   2.091   1_455  S
C468        N484   1.354       .  A
C468        C480   1.464       .  S
C468        C517   1.487       .  S
Co470      N2318   2.094       .  S
Co470      Cl481   2.460       .  S
N471        C482   1.351       .  A
C472        C601   1.465       .  S
N473       N2325   1.330       .  A
Co474      N2320   2.087       .  S
Co474      N2328   2.088       .  S
Co474      Cl481   2.441       .  S
N477       C2313   1.336       .  A
C482        C489   1.471       .  S
C485        C486   1.402       .  A
C485       C1422   1.405   1_545  A
C485       H1424   1.084       .  S
C486        C487   1.407       .  A
C487        C488   1.404   1_545  A
C487        N494   1.432       .  S
C488       C1421   1.399       .  A
C488        H493   1.084       .  S
C489        C490   1.408       .  A
C489       C1420   1.401       .  A
C490       C1417   1.401       .  A
C490        N491   1.432       .  S
N491        H495   1.046       .  S
N491        H496   1.045       .  S
H492       C1417   1.084       .  S
N494        H497   1.045       .  S
N494        H498   1.045       .  S
C499        C500   1.405       .  A
C499        C504   1.403       .  A
C499        H506   1.084       .  S
C500        C501   1.415       .  A
C501        C502   1.397       .  A
C501        N508   1.439       .  S
C502        C503   1.402       .  A
C502        H507   1.085       .  S
C503        C504   1.403       .  A
C504        N505   1.437       .  S
N505        H509   1.046       .  S
N505        H510   1.046       .  S
N508        H511   1.043       .  S
N508        H512   1.046       .  S
C513        C514   1.406       .  A
C513       C1450   1.410       .  A
C513        H520   1.084       .  S
C514        C515   1.407       .  A
C515       C1448   1.400   1_545  A
C515        N522   1.432       .  S
C516        C517   1.405       .  A
C516       C1447   1.406       .  A
C516        H521   1.083       .  S
C517        C518   1.413       .  A
C518       C1445   1.410       .  A
C518        N519   1.437       .  S
N519        H523   1.045       .  S
N519        H524   1.046       .  S
N522        H525   1.045   1_545  S
N522       H2390   1.046       .  S
H526       N2386   1.046       .  S
C527        C528   1.404       .  A
C527        C532   1.399       .  A
C527        H534   1.084       .  S
C528        C529   1.410       .  A
C529        C530   1.409       .  A
C529        N536   1.437       .  S
C530        C531   1.403       .  A
C530        H535   1.084       .  S
C531        C532   1.411       .  A
C532        N533   1.432       .  S
N533        H538   1.046       .  S
N533       H2401   1.045       .  S
N536        H539   1.045       .  S
N536        H540   1.046       .  S
H537       N2397   1.044       .  S
C541        C542   1.410   1_565  A
C541       C1478   1.397       .  A
C541        H548   1.082       .  S
C542        C543   1.417       .  A
C543       C1476   1.409   1_545  A
C543        N550   1.430       .  S
C544        C545   1.405       .  A
C544       C1475   1.407       .  A
C544        H549   1.084       .  S
C545        C546   1.408       .  A
C546       C1473   1.394       .  A
C546       N2411   1.433       .  S
N547       C2410   1.433       .  S
N547        H551   1.045       .  S
N547        H552   1.045       .  S
N550        H553   1.045       .  S
N550        H554   1.044       .  S
C555        C556   1.405       .  A
C555        C560   1.391       .  A
C555        H562   1.077       .  S
C556        C557   1.411       .  A
C557        C558   1.413       .  A
C557        N564   1.436       .  S
C558        C559   1.407       .  A
C558        H563   1.083       .  S
C559        C560   1.410       .  A
C560       N2425   1.441       .  S
N561       C2424   1.441       .  S
N561        H565   1.045       .  S
N561        H566   1.043       .  S
N564        H567   1.046       .  S
N564        H568   1.045       .  S
C569        C574   1.407       .  A
C569       C1502   1.404       .  A
C569        H576   1.084       .  S
C570        C571   1.408       .  A
C570       C1501   1.404       .  A
C571        C572   1.401   1_545  A
C571        N578   1.433       .  S
C572       C1505   1.400       .  A
C572        H577   1.084       .  S
C573        C574   1.414       .  A
C573       C1504   1.402       .  A
C574        N575   1.431       .  S
N575        H579   1.045       .  S
N575        H580   1.045       .  S
N578        H581   1.045       .  S
N578        H582   1.045   1_545  S
C583        C584   1.403       .  A
C583        C588   1.411       .  A
C583        H590   1.084       .  S
C584        C585   1.405       .  A
C585        C586   1.401       .  A
C585        N592   1.432       .  S
C586        C587   1.402       .  A
C586        H591   1.084       .  S
C587        C588   1.412       .  A
C588        N589   1.437       .  S
N589        H593   1.046       .  S
N589        H594   1.045       .  S
N592        H595   1.045       .  S
N592        H596   1.046       .  S
C597        C598   1.400       .  A
C597        C602   1.399       .  A
C597        H604   1.084       .  S
C598        C599   1.411       .  A
C599        C600   1.398       .  A
C599        N606   1.432       .  S
C600        C601   1.400       .  A
C600        H605   1.084       .  S
C601        C602   1.415       .  A
C602        N603   1.439       .  S
N603        H607   1.046       .  S
N603        H608   1.043       .  S
N606        H609   1.046       .  S
N606        H610   1.045       .  S
C611        C612   1.404       .  A
C611        C616   1.406       .  A
C611        H618   1.084       .  S
C612        C613   1.409       .  A
C613        C614   1.404       .  A
C613        N620   1.437       .  S
C614        C615   1.402       .  A
C614        H619   1.084       .  S
C615        C616   1.407       .  A
C616        N617   1.432       .  S
N617        H621   1.046       .  S
N617        H622   1.045       .  S
N620        H623   1.045       .  S
N620        H624   1.046       .  S
C625        C626   1.407       .  A
C625        C630   1.409       .  A
C625        H632   1.084       .  S
C626        C627   1.414       .  A
C627        C628   1.401       .  A
C627        N634   1.439       .  S
C628        C629   1.405       .  A
C628        H633   1.084       .  S
C629        C630   1.415       .  A
C630        N631   1.432       .  S
N631        H635   1.044       .  S
N631        H636   1.045       .  S
N634        H637   1.044       .  S
N634        H638   1.045       .  S
C639        C640   1.406       .  A
C639        C644   1.395       .  A
C639        H646   1.084       .  S
C640        C641   1.415       .  A
C641        C642   1.411       .  A
C641        N648   1.431       .  S
C642        C643   1.408       .  A
C642        H647   1.083       .  S
C643        C644   1.410       .  A
C644        N645   1.433       .  S
N645        H649   1.045       .  S
N645        H650   1.045       .  S
N648        H651   1.046       .  S
N648        H652   1.045       .  S
C653        C654   1.406       .  A
C653        C658   1.409       .  A
C653        H660   1.084       .  S
C654        C655   1.414       .  A
C655        C656   1.396       .  A
C655        N662   1.439       .  S
C656        C657   1.404       .  A
C656        H661   1.081       .  S
C657        C658   1.409       .  A
C658        N659   1.432       .  S
N659        H663   1.045       .  S
N659        H664   1.046       .  S
N662        H665   1.043       .  S
N662        H666   1.046       .  S
C667        C668   1.405       .  A
C667        C672   1.412       .  A
C667        H674   1.083       .  S
C668        C669   1.410       .  A
C669        C670   1.394       .  A
C669        N676   1.432       .  S
C670        C671   1.403       .  A
C670        H675   1.084       .  S
C671        C672   1.412       .  A
C672        N673   1.437       .  S
N673        H677   1.046       .  S
N673        H678   1.046       .  S
N676        H679   1.045       .  S
N676        H680   1.045       .  S
C681        C682   1.400       .  A
C681        C686   1.399       .  A
C681        H688   1.084       .  S
C682        C683   1.423       .  A
C683        C684   1.416       .  A
C683        N690   1.437   1_545  S
C684        C685   1.406       .  A
C684        H689   1.083   1_545  S
C685        C686   1.413       .  A
C686        N687   1.433       .  S
N687        H691   1.046       .  S
N687        H692   1.046       .  S
N690       H1625   1.044       .  S
N690       H1626   1.046       .  S
H693       N1622   1.043       .  S
H694       N1622   1.046       .  S
C695        C696   1.411       .  A
C695        C700   1.416       .  A
C695        H702   1.083   1_545  S
C696        C697   1.401       .  A
C697        C698   1.399       .  A
C697        N704   1.433       .  S
C698        C699   1.413       .  A
C698        H703   1.084       .  S
C699        C700   1.412       .  A
C700        N701   1.435   1_545  S
N701        H705   1.045       .  S
N701        H706   1.046   1_565  S
N704        H707   1.045       .  S
N704        H708   1.045       .  S
C709        C710   1.400       .  A
C709       C1646   1.394       .  A
C709        H716   1.084       .  S
C710        C711   1.412       .  A
C711       C1644   1.398       .  A
C711        N718   1.433       .  S
C712        C713   1.403   1_565  A
C712       C1643   1.398       .  A
C712        H717   1.084       .  S
C713        C714   1.421       .  A
C714       C1641   1.395   1_545  A
C714        N715   1.433       .  S
N715        H719   1.044       .  S
N715        H720   1.045       .  S
N718        H721   1.045       .  S
N718        H722   1.044       .  S
C723        C724   1.405       .  A
C723        C728   1.402       .  A
C723        H730   1.082       .  S
C724        C725   1.413       .  A
C725        C726   1.407       .  A
C725        N732   1.438       .  S
C726        C727   1.403       .  A
C726        H731   1.084       .  S
C727        C728   1.409       .  A
C728        N729   1.438       .  S
N729        H733   1.046       .  S
N729        H734   1.046       .  S
N732        H735   1.044       .  S
N732        H736   1.046       .  S
C737        C742   1.402       .  A
C737       C1670   1.398       .  A
C737        H744   1.084       .  S
C738        C739   1.413   1_545  A
C738       C1669   1.400       .  A
C739       C1672   1.405       .  A
C739        N746   1.439       .  S
C740        C741   1.404       .  A
C740       C1671   1.404       .  A
C740        H745   1.084       .  S
C741        C742   1.420       .  A
C742        N743   1.439       .  S
N743        H747   1.045       .  S
N743        H748   1.042       .  S
N746        H749   1.044       .  S
N746        H750   1.046       .  S
C751        C752   1.401       .  A
C751        C756   1.403       .  A
C751        H758   1.084       .  S
C752        C753   1.408       .  A
C753        C754   1.401       .  A
C753        N760   1.431       .  S
C754        C755   1.400       .  A
C754        H759   1.084       .  S
C755        C756   1.414       .  A
C756        N757   1.432       .  S
N757        H761   1.045       .  S
N757        H762   1.045       .  S
N760        H763   1.044       .  S
N760        H764   1.046       .  S
C765        C766   1.404       .  A
C765       C1702   1.400       .  A
C765        H772   1.084       .  S
C766        C767   1.410       .  A
C767       C1700   1.402       .  A
C767        N774   1.432       .  S
C768        C769   1.404       .  A
C768       C1699   1.406   1_545  A
C768        H773   1.084       .  S
C769        C770   1.411       .  A
C770       C1697   1.399       .  A
C770        N771   1.433       .  S
N771        H775   1.045       .  S
N771        H776   1.045       .  S
N774        H777   1.045       .  S
N774        H778   1.046       .  S
C779        C780   1.405       .  A
C779        C784   1.406       .  A
C779        H786   1.084       .  S
C780        C781   1.409       .  A
C781        C782   1.408       .  A
C781        N788   1.437       .  S
C782        C783   1.407       .  A
C782        H787   1.084       .  S
C783        C784   1.413       .  A
C784        N785   1.438       .  S
N785        H789   1.046       .  S
N785        H790   1.045       .  S
N788        H791   1.045       .  S
N788        H792   1.046       .  S
C793        C794   1.405       .  A
C793       C1730   1.399       .  A
C793        H800   1.084       .  S
C794       C1727   1.411       .  A
C795        C796   1.404       .  A
C795       C1726   1.411   1_545  A
C795        N802   1.437       .  S
C796        C797   1.400       .  A
C796        H801   1.084       .  S
C797        C798   1.410       .  A
C798       C1725   1.400   1_545  A
C798        N799   1.433       .  S
N799        H804   1.046       .  S
N799       H1735   1.045       .  S
N802        H806   1.046       .  S
N802       H1737   1.045   1_545  S
H803       N1731   1.044       .  S
H805       N1734   1.045       .  S
C807        C808   1.407       .  A
C807        C812   1.401       .  A
C807        H814   1.084       .  S
C808        C809   1.417       .  A
C809        C810   1.401       .  A
C809        N816   1.439       .  S
C810        C811   1.402       .  A
C810        H815   1.084       .  S
C811        C812   1.414       .  A
C812        N813   1.439       .  S
N813        H817   1.046       .  S
N813        H818   1.043       .  S
N816        H819   1.042       .  S
N816        H820   1.046       .  S
C821        C822   1.403       .  A
C821        C826   1.401       .  A
C821        H828   1.084       .  S
C822        C823   1.410       .  A
C823        C824   1.394       .  A
C823        N830   1.433       .  S
C824        C825   1.400       .  A
C824        H829   1.078       .  S
C825        C826   1.413       .  A
C826        N827   1.431       .  S
N827        H831   1.045       .  S
N827        H832   1.045       .  S
N830        H833   1.045       .  S
N830        H834   1.045       .  S
C835        C836   1.408       .  A
C835        C840   1.389       .  A
C835        H842   1.083       .  S
C836        C837   1.416       .  A
C837        C838   1.408       .  A
C837        N844   1.436       .  S
C838        C839   1.401       .  A
C838        H843   1.084       .  S
C839        C840   1.404       .  A
C840        N841   1.433       .  S
N841        H845   1.045       .  S
N841        H846   1.045       .  S
N844        H847   1.046       .  S
N844        H848   1.045       .  S
C849        C850   1.396       .  A
C849        C854   1.390       .  A
C849        H856   1.085       .  S
C850        C851   1.409       .  A
C851        C852   1.410       .  A
C851        N858   1.437       .  S
C852        C853   1.409       .  A
C852        H857   1.082       .  S
C853        C854   1.422       .  A
C854        N855   1.431       .  S
N855        H859   1.043       .  S
N855        H860   1.045       .  S
N858        H861   1.045       .  S
N858        H862   1.046       .  S
C863        C864   1.399       .  A
C863        C868   1.400       .  A
C863        H870   1.084       .  S
C864        C865   1.418       .  A
C865        C866   1.409       .  A
C865        N872   1.438       .  S
C866        C867   1.406       .  A
C866        H871   1.083       .  S
C867        C868   1.410       .  A
C868        N869   1.430       .  S
N869        H873   1.045       .  S
N869        H874   1.046       .  S
N872        H875   1.043       .  S
N872        H876   1.046       .  S
C877        C878   1.395       .  A
C877        C882   1.393       .  A
C877        H884   1.085       .  S
C878        C879   1.417   1_545  A
C879        C880   1.411       .  A
C879        N886   1.437       .  S
C880        C881   1.407   1_565  A
C880        H885   1.083       .  S
C881        C882   1.411       .  A
C882        N883   1.428       .  S
N883        H887   1.045       .  S
N883        H888   1.046       .  S
N886        H889   1.043       .  S
N886        H890   1.046       .  S
C891        C892   1.407   1_565  A
C891        C896   1.409   1_565  A
C891        H898   1.083       .  S
C892        C893   1.409       .  A
C893        C894   1.397       .  A
C893        N900   1.432       .  S
C894        C895   1.407       .  A
C894        H899   1.083       .  S
C895        C896   1.416       .  A
C896        N897   1.431   1_545  S
N897        H901   1.045       .  S
N897        H902   1.045       .  S
N900        H903   1.045       .  S
N900        H904   1.045       .  S
C905        C906   1.401       .  A
C905        C910   1.398       .  A
C905        H912   1.084       .  S
C906        C907   1.412       .  A
C907        C908   1.409       .  A
C907        N914   1.437       .  S
C908        C909   1.402       .  A
C908        H913   1.084       .  S
C909        C910   1.415       .  A
C910        N911   1.433       .  S
N911        H915   1.043       .  S
N911        H916   1.046       .  S
N914        H917   1.046       .  S
N914       H1850   1.045       .  S
H918       N1846   1.046       .  S
C919        C920   1.399       .  A
C919        C924   1.393       .  A
C919        H926   1.081       .  S
C920        C921   1.410       .  A
C921        C922   1.401       .  A
C921        N928   1.432       .  S
C922        C923   1.405       .  A
C922        H927   1.084       .  S
C923        C924   1.411       .  A
C924        N925   1.433       .  S
N925        H929   1.046       .  S
N925        H930   1.044       .  S
N928        H931   1.046       .  S
N928        H932   1.044       .  S
N933        H965   1.027       .  S
N933        C937   1.357   1_545  A
N934       C2805   1.349       .  A
N934        C942   1.348   1_655  A
N935        H966   1.028       .  S
N935        C940   1.354       .  A
N936       C2807   1.352       .  A
N936        C944   1.351   1_655  A
C937        C945   1.388       .  A
C937        C953   1.421       .  A
C938        C954   1.410       .  A
C938        C946   1.385       .  A
C939        C947   1.388       .  A
C939        C956   1.420       .  A
C940        C955   1.414       .  A
C940        C948   1.386       .  A
C941       N2798   1.351       .  A
C941        C953   1.412   1_545  A
C941        C949   1.386       .  A
C942        C956   1.410       .  A
C942        C950   1.387       .  A
C943       N2800   1.349       .  A
C943        C951   1.386       .  A
C943        C954   1.406       .  A
C944        C952   1.387       .  A
C944        C955   1.414       .  A
C945        H957   1.082       .  S
C946        H958   1.082       .  S
C947        H959   1.082       .  S
C948        H960   1.082       .  S
C949       C2814   1.374       .  A
C949        H961   1.082       .  S
C950       C2813   1.373   1_455  A
C950        H962   1.082       .  S
C951       C2816   1.374       .  A
C951        H963   1.082       .  S
C952       C2815   1.373   1_455  A
C952        H964   1.082       .  S
C953       C1855   1.491       .  S
C954       C1824   1.479       .  S
C955       C1810   1.486       .  S
C956       C1838   1.485       .  S
N967        H999   1.037       .  S
N967        C972   1.353       .  A
N967        C971   1.354       .  A
N968       C2839   1.349       .  A
N968        C976   1.349       .  A
N969       H1000   1.036       .  S
N969        C974   1.353       .  A
N969        C973   1.355       .  A
N970       C2841   1.352       .  A
N970        C978   1.352       .  A
C971        C979   1.387       .  A
C971        C987   1.415       .  A
C972        C988   1.416       .  A
C972        C980   1.387       .  A
C973        C981   1.388       .  A
C973        C990   1.418       .  A
C974        C989   1.414       .  A
C974        C982   1.386       .  A
C975       N2832   1.347   1_455  A
C975        C987   1.406       .  A
C975        C983   1.386       .  A
C976        C990   1.410       .  A
C976        C984   1.386       .  A
C977       N2834   1.351   1_455  A
C977        C985   1.387       .  A
C977        C988   1.413       .  A
C978        C986   1.385       .  A
C978        C989   1.412       .  A
C979        C980   1.375       .  A
C979        H991   1.082       .  S
C980        H992   1.082       .  S
C981        C982   1.374       .  A
C981        H993   1.082       .  S
C982        H994   1.082       .  S
C983       C2848   1.374   1_455  A
C983        H995   1.082       .  S
C984       C2847   1.373       .  A
C984        H996   1.082       .  S
C985       C2850   1.377   1_455  A
C985        H997   1.082       .  S
C986       C2849   1.374       .  A
C986        H998   1.082       .  S
C987       C1754   1.481       .  S
C988       C1782   1.491       .  S
C989       C1796   1.487       .  S
C990       C1771   1.485       .  S
C1001      N1019   1.357       .  A
C1001      C1038   1.450       .  S
C1001      C1852   1.481       .  S
N1002      N1019   1.332       .  A
N1002      N1024   1.319       .  A
N1002     Co1039   2.110       .  S
C1003      N1028   1.347       .  A
C1003      H1048   1.081       .  S
C1003      C1041   1.470       .  S
H1004      C1045   1.081       .  S
C1005      N1029   1.341       .  A
C1005      H1034   1.082       .  S
C1005      C1009   1.466       .  S
Co1006     N1024   2.065       .  S
Co1006     N1014   2.063       .  S
Co1006     N1046   2.065       .  S
Co1006     N1022   2.074       .  S
Co1006    Cl1050   2.438       .  S
N1007      C1045   1.351       .  A
N1007      N1014   1.317       .  A
N1007     Co1008   2.104       .  S
Co1008     N1011   2.079       .  S
Co1008     N1028   2.094       .  S
Co1008     N1015   2.084       .  S
Co1008    Cl1050   2.461       .  S
C1009      N1047   1.350       .  A
C1009      C1740   1.481       .  S
N1010      N1017   1.321       .  A
N1010      N1040   1.325       .  A
N1010     Co1043   2.088       .  S
N1011      N1029   1.321       .  A
N1011      N1047   1.323       .  A
N1012      C1041   1.346       .  A
N1012      N1022   1.319       .  A
H1013      C1038   1.081       .  S
N1014      N1035   1.318       .  A
N1015      N1033   1.320       .  A
N1015      N1020   1.322       .  A
C1016      N1020   1.351       .  A
C1016      C1044   1.464       .  S
C1016      C1712   1.477       .  S
N1017      C1032   1.339       .  A
N1017     Co1039   2.083       .  S
C1018      N1046   1.333       .  A
C1018      H1052   1.079       .  S
C1018      C1021   1.448       .  S
C1021      N1042   1.353       .  A
C1021      C1841   1.471       .  S
N1022      N1028   1.317       .  A
N1023      C1049   1.341       .  A
N1023      N1025   1.320       .  A
N1023     Co1039   2.091       .  S
N1024      C1038   1.334       .  A
N1025      N1053   1.325       .  A
N1025     Co1043   2.090       .  S
H1026      C1049   1.082       .  S
H1027      C1044   1.082       .  S
N1029     Co1043   2.093       .  S
N1030      N1042   1.329       .  A
N1030      N1046   1.318       .  A
N1030     Co1039   2.094       .  S
C1031      N1035   1.344       .  A
C1031      C1045   1.474       .  S
C1031      C1799   1.491       .  S
C1032      H1036   1.082       .  S
C1032      C1051   1.461       .  S
N1033      C1044   1.341       .  A
N1033     Co1043   2.089       .  S
C1037      N1053   1.352       .  A
C1037      C1049   1.463       .  S
C1037      C1698   1.477       .  S
Co1039    Cl1050   2.457       .  S
N1040      C1051   1.351       .  A
C1041      C1785   1.490       .  S
Co1043    Cl1050   2.443       .  S
C1051      C1726   1.479       .  S
C1054      N1072   1.354       .  A
C1054      C1091   1.457       .  S
C1054      C1827   1.484       .  S
N1055      N1072   1.328       .  A
N1055      N1077   1.318       .  A
N1055     Co1092   2.091       .  S
C1056      N1081   1.343       .  A
C1056      H1101   1.081       .  S
C1056      C1094   1.460       .  S
H1057      C1098   1.081       .  S
C1058      N1082   1.341       .  A
C1058      H1087   1.082       .  S
C1058      C1062   1.464       .  S
Co1059     N1077   2.067       .  S
Co1059     N1067   2.071       .  S
Co1059     N1099   2.064       .  S
Co1059     N1075   2.076       .  S
Co1059    Cl1103   2.432       .  S
N1060      C1098   1.347       .  A
N1060      N1067   1.318       .  A
N1060     Co1061   2.091       .  S
Co1061     N1064   2.077       .  S
Co1061     N1081   2.082       .  S
Co1061     N1068   2.081       .  S
Co1061    Cl1103   2.463       .  S
C1062      N1100   1.350       .  A
C1062      C1684   1.472       .  S
N1063      N1070   1.320       .  A
N1063      N1093   1.324       .  A
N1063     Co1096   2.086       .  S
N1064      N1082   1.319       .  A
N1064      N1100   1.322       .  A
N1065      C1094   1.347       .  A
N1065      N1075   1.321       .  A
H1066      C1091   1.081       .  S
N1067      N1088   1.319       .  A
N1068      N1086   1.317       .  A
N1068      N1073   1.324       .  A
C1069      N1073   1.352       .  A
C1069      C1097   1.463       .  S
C1069      C1656   1.473       .  S
N1070      C1085   1.338       .  A
N1070     Co1092   2.081       .  S
C1071      N1099   1.332       .  A
C1071      H1105   1.080       .  S
C1071      C1074   1.457       .  S
C1074      N1095   1.357       .  A
C1074      C1813   1.486       .  S
N1075      N1081   1.319       .  A
N1076      C1102   1.340       .  A
N1076      N1078   1.319       .  A
N1076     Co1092   2.083       .  S
N1077      C1091   1.332       .  A
N1078      N1106   1.320       .  A
N1078     Co1096   2.076       .  S
H1079      C1102   1.082       .  S
H1080      C1097   1.082       .  S
N1082     Co1096   2.090       .  S
N1083      N1095   1.330       .  A
N1083      N1099   1.318       .  A
N1083     Co1092   2.099       .  S
C1084      N1088   1.345       .  A
C1084      C1098   1.467       .  S
C1084      C1768   1.477       .  S
C1085      H1089   1.082       .  S
C1085      C1104   1.461       .  S
N1086      C1097   1.336       .  A
N1086     Co1096   2.078       .  S
C1090      N1106   1.347       .  A
C1090      C1102   1.464       .  S
C1090      C1645   1.479       .  S
Co1092    Cl1103   2.458       .  S
N1093      C1104   1.351       .  A
C1094      C1757   1.471       .  S
Co1096    Cl1103   2.432       .  S
C1104      C1670   1.474       .  S
N1107      H1139   1.034   1_545  S
N1107      C1111   1.354       .  A
N1108      C1115   1.351       .  A
N1108      C1116   1.348       .  A
N1109      H1140   1.029   1_545  S
N1109      C1113   1.354       .  A
N1110      C1117   1.358       .  A
N1110      C1118   1.358       .  A
C1111      C1119   1.384       .  A
C1111      C1127   1.409   1_545  A
C1112      C1128   1.419       .  A
C1113      C1121   1.387       .  A
C1113      C1130   1.417   1_545  A
C1114      C1129   1.413       .  A
C1114      C1122   1.386       .  A
C1115      C1127   1.407       .  A
C1115      C1123   1.384       .  A
C1116      C1130   1.410       .  A
C1116      C1124   1.388       .  A
C1117      C1125   1.387       .  A
C1117      C1128   1.427       .  A
C1118      C1126   1.385       .  A
C1118      C1129   1.424       .  A
C1119      C1120   1.370       .  A
C1119      H1131   1.082       .  S
C1121      H1133   1.082       .  S
C1122      H1134   1.083       .  S
C1123      C1124   1.372       .  A
C1123      H1135   1.082       .  S
C1124      H1136   1.082       .  S
C1125      C1126   1.382       .  A
C1125      H1137   1.082       .  S
C1126      H1138   1.082       .  S
C1127      C1600   1.484       .  S
C1128      C1628   1.501       .  S
C1129      C1614   1.499       .  S
C1130      C1586   1.477       .  S
N1141      H1173   1.039       .  S
N1141      C1146   1.352   1_554  A
N1141      C1145   1.353       .  A
N1142      C1149   1.348       .  A
N1142      C1150   1.349       .  A
N1143      H1174   1.039       .  S
N1143      C1148   1.353   1_554  A
N1143      C1147   1.354       .  A
N1144      C1151   1.356       .  A
N1144      C1152   1.355       .  A
C1145      C1153   1.388       .  A
C1145      C1161   1.416       .  A
C1146      C1162   1.413       .  A
C1146      C1154   1.386       .  A
C1147      C1155   1.388       .  A
C1147      C1164   1.416       .  A
C1148      C1163   1.413       .  A
C1148      C1156   1.386       .  A
C1149      C1161   1.410       .  A
C1149      C1157   1.387       .  A
C1150      C1164   1.408       .  A
C1150      C1158   1.386       .  A
C1151      C1159   1.386       .  A
C1151      C1162   1.421       .  A
C1152      C1160   1.386       .  A
C1152      C1163   1.420       .  A
C1153      C1154   1.375   1_554  A
C1153      H1165   1.082       .  S
C1154      H1166   1.082       .  S
C1155      C1156   1.374   1_554  A
C1155      H1167   1.082       .  S
C1156      H1168   1.082       .  S
C1157      C1158   1.377       .  A
C1157      H1169   1.082       .  S
C1158      H1170   1.082       .  S
C1159      C1160   1.382       .  A
C1159      H1171   1.082       .  S
C1160      H1172   1.082       .  S
C1161      C1530   1.485       .  S
C1162      C1561   1.498       .  S
C1163      C1575   1.496       .  S
C1164      C1544   1.484       .  S
C1175      N1193   1.339       .  A
C1175      C1212   1.485       .  S
C1175      C1631   1.492       .  S
N1176      N1193   1.317       .  A
N1176      N1198   1.322       .  A
N1176     Co1213   2.063       .  S
C1177      N1202   1.351       .  A
C1177      H1222   1.080       .  S
C1177      C1215   1.477       .  S
H1178      C1219   1.082       .  S
C1179      N1203   1.355       .  A
C1179      H1208   1.081       .  S
C1179      C1183   1.476       .  S
Co1180     N1198   2.129       .  S
Co1180     N3052   2.128       .  S
Co1180     N1220   2.084       .  S
Co1180     N3060   2.067       .  S
Co1180    Cl1224   2.469       .  S
N1181      C1219   1.333       .  A
N1181      N1188   1.322       .  A
N1181     Co1182   2.077       .  S
Co1182     N1185   2.075       .  S
Co1182     N1202   2.106       .  S
Co1182     N1189   2.114       .  S
Co1182    Cl3088   2.443   1_455  S
C1183      N1221   1.340       .  A
C1183      C1558   1.484       .  S
N1184      N1191   1.321       .  A
N1184      N1214   1.336       .  A
N1184     Co1217   2.120       .  S
N1185      N1203   1.323       .  A
N1185      N1221   1.320       .  A
N1186      C1215   1.342       .  A
N1186      N1196   1.316       .  A
H1187      C1212   1.081       .  S
N1188      N1209   1.335       .  A
N1188     Co3044   2.122       .  S
N1189      N1207   1.320       .  A
N1189      N1194   1.335       .  A
C1190      N1194   1.362       .  A
C1190      C1218   1.452       .  S
C1190      C1488   1.493       .  S
N1191      C1206   1.332       .  A
N1191     Co1213   2.072       .  S
C1192      N1220   1.337       .  A
C1192      H1226   1.081       .  S
C1192      C1195   1.449       .  S
C1195      N1216   1.358       .  A
C1195      C1502   1.481       .  S
N1196      N1202   1.320       .  A
N1196     Co3044   2.066       .  S
N1197      C1223   1.350       .  A
N1197      N1199   1.320       .  A
N1197     Co1213   2.102       .  S
N1198      C1212   1.358       .  A
N1199      N1227   1.319       .  A
N1199     Co1217   2.067       .  S
H1200      C1223   1.081       .  S
H1201      C1218   1.081       .  S
N1203     Co3081   2.121   1_455  S
N1204      N1216   1.332       .  A
N1204      N1220   1.321       .  A
N1204     Co1213   2.107       .  S
C1205      N1209   1.362       .  A
C1205      C1219   1.446       .  S
C1205      C1617   1.486       .  S
C1206      H1210   1.082       .  S
C1206      C1225   1.445       .  S
N1207      C1218   1.329       .  A
N1207     Co3081   2.068   1_455  S
C1211      N1227   1.340       .  A
C1211      C1223   1.469       .  S
C1211      C1516   1.471       .  S
Co1213    Cl1224   2.443       .  S
N1214      C1225   1.363       .  A
C1215      C1474   1.484       .  S
Co1217     N3067   2.110       .  S
Co1217     N3071   2.066       .  S
Co1217    Cl1224   2.463       .  S
Cl1224    Co3046   2.448       .  S
C1225      C1572   1.488       .  S
N1228      H1260   1.036       .  S
N1228      C1233   1.354       .  A
N1228      C1232   1.356       .  A
N1229      C1236   1.350       .  A
N1229      C1237   1.350       .  A
N1230      H1261   1.038       .  S
N1230      C1235   1.351       .  A
N1230      C1234   1.351       .  A
N1231      C1238   1.352       .  A
N1231      C1239   1.352       .  A
C1232      C1240   1.386       .  A
C1232      C1248   1.422       .  A
C1233      C1249   1.421       .  A
C1233      C1241   1.387       .  A
C1234      C1242   1.388       .  A
C1234      C1251   1.411       .  A
C1235      C1250   1.410       .  A
C1235      C1243   1.387       .  A
C1236      C1248   1.413       .  A
C1236      C1244   1.387       .  A
C1237      C1251   1.410       .  A
C1237      C1245   1.385       .  A
C1238      C1246   1.387       .  A
C1238      C1249   1.414       .  A
C1239      C1247   1.386       .  A
C1239      C1250   1.412       .  A
C1240      C1241   1.381       .  A
C1240      H1252   1.082       .  S
C1241      H1253   1.082       .  S
C1242      C1243   1.376       .  A
C1242      H1254   1.083       .  S
C1243      H1255   1.083       .  S
C1244      C1245   1.371       .  A
C1246      C1247   1.371       .  A
C1246      H1258   1.082       .  S
C1247      H1259   1.082       .  S
C1248      C1477   1.493       .  S
C1249      C1491   1.492       .  S
C1250      C1659   1.484       .  S
C1251      C1642   1.482       .  S
N1262      H1294   1.038       .  S
N1262      C1267   1.352       .  A
N1262      C1266   1.353       .  A
N1263      C1270   1.349       .  A
N1263      C1271   1.349       .  A
N1264      H1295   1.039       .  S
N1264      C1269   1.351       .  A
N1264      C1268   1.354       .  A
N1265      C1272   1.354       .  A
N1265      C1273   1.353       .  A
C1266      C1274   1.387       .  A
C1266      C1282   1.414       .  A
C1267      C1283   1.414       .  A
C1267      C1275   1.388       .  A
C1268      C1276   1.387       .  A
C1268      C1285   1.417       .  A
C1269      C1284   1.412       .  A
C1269      C1277   1.386       .  A
C1270      C1282   1.409       .  A
C1270      C1278   1.386       .  A
C1271      C1285   1.412       .  A
C1271      C1279   1.387       .  A
C1272      C1280   1.386       .  A
C1272      C1283   1.417       .  A
C1273      C1281   1.386       .  A
C1273      C1284   1.416       .  A
C1274      C1275   1.376       .  A
C1274      H1286   1.082       .  S
C1275      H1287   1.083       .  S
C1276      C1277   1.377       .  A
C1278      C1279   1.372       .  A
C1278      H1290   1.082       .  S
C1279      H1291   1.082       .  S
C1280      C1281   1.376       .  A
C1280      H1292   1.082       .  S
C1281      H1293   1.082       .  S
C1282      C1687   1.483       .  S
C1283      C1519   1.491       .  S
C1284      C1505   1.486       .  S
C1285      C1673   1.493       .  S
N1296      H1328   1.039       .  S
N1296      C1301   1.353       .  A
N1296      C1300   1.354       .  A
N1297      C1304   1.352       .  A
N1297      C1305   1.352       .  A
N1298      H1329   1.040       .  S
N1298      C1303   1.355       .  A
N1298      C1302   1.355       .  A
N1299      C1306   1.352       .  A
N1299      C1307   1.352       .  A
C1300      C1308   1.388       .  A
C1300      C1316   1.418       .  A
C1301      C1317   1.415       .  A
C1301      C1309   1.387       .  A
C1302      C1310   1.387       .  A
C1302      C1319   1.417       .  A
C1303      C1318   1.417       .  A
C1303      C1311   1.387       .  A
C1304      C1316   1.415       .  A
C1304      C1312   1.386       .  A
C1305      C1319   1.413       .  A
C1305      C1313   1.386       .  A
C1306      C1314   1.385       .  A
C1306      C1317   1.413       .  A
C1307      C1315   1.387       .  A
C1307      C1318   1.416       .  A
C1308      C1309   1.376       .  A
C1308      H1320   1.082       .  S
C1309      H1321   1.082       .  S
C1310      C1311   1.377       .  A
C1310      H1322   1.082       .  S
C1311      H1323   1.082       .  S
C1312      C1313   1.375       .  A
C1312      H1324   1.082       .  S
C1313      H1325   1.082       .  S
C1314      C1315   1.374       .  A
C1316      C1715   1.496       .  S
C1317      C1701   1.489       .  S
C1318      C1446   1.496       .  S
C1319      C1463   1.494       .  S
N1330      H1362   1.039       .  S
N1330      C1335   1.354       .  A
N1330      C1334   1.354       .  A
N1331      C1338   1.350       .  A
N1331      C1339   1.351       .  A
N1332      H1363   1.040       .  S
N1332      C1337   1.353       .  A
N1332      C1336   1.353       .  A
N1333      C1340   1.351       .  A
N1333      C1341   1.351       .  A
C1334      C1342   1.386       .  A
C1334      C1350   1.415       .  A
C1335      C1351   1.416       .  A
C1335      C1343   1.388       .  A
C1336      C1344   1.387       .  A
C1336      C1353   1.415       .  A
C1337      C1352   1.413       .  A
C1337      C1345   1.386       .  A
C1338      C1350   1.411       .  A
C1338      C1346   1.386       .  A
C1339      C1353   1.414       .  A
C1339      C1347   1.387       .  A
C1340      C1348   1.387       .  A
C1340      C1351   1.414       .  A
C1341      C1349   1.386       .  A
C1341      C1352   1.412       .  A
C1342      C1343   1.374       .  A
C1344      C1345   1.375       .  A
C1344      H1356   1.082       .  S
C1345      H1357   1.082       .  S
C1346      C1347   1.374       .  A
C1346      H1358   1.083       .  S
C1347      H1359   1.082       .  S
C1348      C1349   1.374       .  A
C1348      H1360   1.082       .  S
C1349      H1361   1.082       .  S
C1350      C1729   1.487       .  S
C1351      C1418   1.486       .  S
C1352      C1432   1.487       .  S
C1353      C1743   1.491       .  S
C1364      N1382   1.354       .  A
C1364      C1401   1.459       .  S
C1364      C1603   1.485       .  S
N1365      N1382   1.327       .  A
N1365      N1387   1.319       .  A
N1365     Co1402   2.092       .  S
C1366      N3255   1.345       .  A
C1366      H1411   1.081       .  S
C1366      C1404   1.459       .  S
H1367      C1408   1.081       .  S
C1368      N1392   1.341       .  A
C1368      H1397   1.082       .  S
C1368      C1372   1.465       .  S
Co1369     N1387   2.073       .  S
Co1369     N1377   2.073       .  S
Co1369     N1409   2.062       .  S
Co1369     N1385   2.072       .  S
Co1369    Cl1413   2.440       .  S
N1370      C1408   1.344       .  A
N1370      N1377   1.318       .  A
N1370     Co1371   2.088       .  S
Co1371     N1374   2.080       .  S
Co1371     N1391   2.081       .  S
Co1371     N3242   2.082       .  S
Co1371    Cl1413   2.456       .  S
C1372      N1410   1.350       .  A
C1372      C1435   1.471       .  S
N1373      N1380   1.320       .  A
N1373      N1403   1.323       .  A
N1373     Co1406   2.085       .  S
N1374      N1392   1.319       .  A
N1374      N1410   1.322       .  A
N1375      C1404   1.344       .  A
N1375      N3249   1.321       .  A
H1376      C1401   1.081       .  S
N1377      N1398   1.321       .  A
N1378      N1396   1.320       .  A
N1378      N1383   1.324       .  A
N1378     Co3235   2.078   1_455  S
C1379      N1383   1.349       .  A
C1379      C1407   1.465       .  S
C1379      C1460   1.482       .  S
N1380      C1395   1.341       .  A
N1380     Co1402   2.088       .  S
C1381      N3273   1.331       .  A
C1381      H1415   1.081       .  S
C1381      C1384   1.452       .  S
C1384      N1405   1.353       .  A
C1384      C1589   1.474       .  S
N1385      N3239   1.320       .  A
N1385      N1391   1.319       .  A
N1386      C1412   1.342       .  A
N1386      N1388   1.321       .  A
N1386     Co3266   2.087   1_455  S
N1387      C1401   1.336       .  A
N1388      N1416   1.323       .  A
N1388     Co3270   2.091   1_455  S
H1389      C1412   1.082       .  S
H1390      C1407   1.082       .  S
N1391      C3230   1.344       .  A
N1392     Co1406   2.091       .  S
N1393      N3269   1.329       .  A
N1393      N1409   1.318       .  A
N1393     Co1402   2.097       .  S
C1394      N1398   1.347       .  A
C1394      C1408   1.463       .  S
C1394      C1547   1.472       .  S
C1395      H1399   1.082       .  S
C1395      C1414   1.463       .  S
N1396      C1407   1.341       .  A
N1396     Co3270   2.091   1_455  S
C1400      N1416   1.353       .  A
C1400      C1412   1.464       .  S
C1400      C1449   1.482       .  S
Co1402     N3250   2.079       .  S
Co1402    Cl1413   2.455       .  S
N1403      C1414   1.350       .  A
C1404      C1533   1.467       .  S
N1405      N3257   1.327       .  A
Co1406     N3252   2.091       .  S
Co1406     N3260   2.089       .  S
Co1406    Cl1413   2.445       .  S
N1409      C3245   1.333       .  A
C1414      C1421   1.473       .  S
C1417      C1418   1.402       .  A
C1418      C1419   1.411       .  A
C1419      C1420   1.407       .  A
C1419      N1426   1.437       .  S
C1420      H1425   1.084       .  S
C1421      C1422   1.411       .  A
C1422      N1423   1.432       .  S
N1423      H1427   1.046       .  S
N1423      H1428   1.045   1_565  S
N1426      H1429   1.045       .  S
N1426      H1430   1.046       .  S
C1431      C1432   1.404       .  A
C1431      C1436   1.406       .  A
C1431      H1438   1.084       .  S
C1432      C1433   1.416       .  A
C1433      C1434   1.401       .  A
C1433      N1440   1.439       .  S
C1434      C1435   1.403       .  A
C1434      H1439   1.084       .  S
C1435      C1436   1.406       .  A
C1436      N1437   1.437       .  S
N1437      H1441   1.046       .  S
N1437      H1442   1.046       .  S
N1440      H1443   1.043       .  S
N1440      H1444   1.045       .  S
C1445      C1446   1.405       .  A
C1445      H1452   1.084       .  S
C1446      C1447   1.410       .  A
C1447      N1454   1.438       .  S
C1448      C1449   1.404       .  A
C1448      H1453   1.083       .  S
C1449      C1450   1.412   1_565  A
C1450      N1451   1.437       .  S
N1451      H1455   1.046   1_545  S
N1451      H1456   1.045       .  S
N1454      H1457   1.046       .  S
N1454      H3322   1.045       .  S
H1458      N3318   1.046       .  S
C1459      C1460   1.405       .  A
C1459      C1464   1.400       .  A
C1459      H1466   1.084       .  S
C1460      C1461   1.412       .  A
C1461      C1462   1.408       .  A
C1461      N1468   1.438       .  S
C1462      C1463   1.404       .  A
C1462      H1467   1.084       .  S
C1463      C1464   1.415       .  A
C1464      N1465   1.433       .  S
N1465      H3333   1.043       .  S
N1465      H1470   1.045       .  S
N1468      H1471   1.045       .  S
N1468      H1472   1.046       .  S
H1469      N3329   1.044       .  S
C1473      C1474   1.407       .  A
C1473      H1480   1.085       .  S
C1474      C1475   1.416       .  A
C1475      N1482   1.431       .  S
C1476      C1477   1.407       .  A
C1476      H1481   1.084       .  S
C1477      C1478   1.408       .  A
C1478      N3343   1.433       .  S
N1479      C3342   1.433       .  S
N1479      H1483   1.044       .  S
N1479      H1484   1.045       .  S
N1482      H1485   1.045       .  S
N1482      H1486   1.044       .  S
C1487      C1488   1.407       .  A
C1487      C1492   1.395       .  A
C1487      H1494   1.081       .  S
C1488      C1489   1.413       .  A
C1489      C1490   1.417       .  A
C1489      N1496   1.436       .  S
C1490      C1491   1.409       .  A
C1490      H1495   1.083       .  S
C1491      C1492   1.413       .  A
C1492      N3357   1.441       .  S
N1493      C3356   1.441       .  S
N1493      H1497   1.046       .  S
N1493      H1498   1.042       .  S
N1496      H1499   1.045       .  S
N1496      H1500   1.046       .  S
C1501      C1506   1.405   1_545  A
C1501      H1508   1.084       .  S
C1502      C1503   1.410       .  A
C1503      C1504   1.405       .  A
C1503      N1510   1.433       .  S
C1504      H1509   1.084       .  S
C1505      C1506   1.413       .  A
C1506      N1507   1.432       .  S
N1507      H1511   1.046       .  S
N1507      H1512   1.045       .  S
N1510      H1513   1.046       .  S
N1510      H1514   1.045       .  S
C1515      C1516   1.404       .  A
C1515      C1520   1.410       .  A
C1515      H1522   1.084       .  S
C1516      C1517   1.408       .  A
C1517      C1518   1.403       .  A
C1517      N1524   1.438       .  S
C1518      C1519   1.403       .  A
C1518      H1523   1.084       .  S
C1519      C1520   1.411       .  A
C1520      N1521   1.437       .  S
N1521      H1525   1.046       .  S
N1521      H1526   1.045       .  S
N1524      H1527   1.046       .  S
N1524      H1528   1.046       .  S
C1529      C1530   1.401       .  A
C1529      C1534   1.401       .  A
C1529      H1536   1.084       .  S
C1530      C1531   1.413       .  A
C1531      C1532   1.397       .  A
C1531      N1538   1.433       .  S
C1532      C1533   1.399       .  A
C1532      H1537   1.084       .  S
C1533      C1534   1.417       .  A
C1534      N1535   1.439       .  S
N1535      H1539   1.046       .  S
N1535      H1540   1.043       .  S
N1538      H1541   1.045       .  S
N1538      H1542   1.044       .  S
C1543      C1544   1.404       .  A
C1543      C1548   1.408       .  A
C1543      H1550   1.084       .  S
C1544      C1545   1.407       .  A
C1545      C1546   1.401       .  A
C1545      N1552   1.438       .  S
C1546      C1547   1.402       .  A
C1546      H1551   1.084       .  S
C1547      C1548   1.410       .  A
C1548      N1549   1.437       .  S
N1549      H1553   1.046       .  S
N1549      H1554   1.045       .  S
N1552      H1555   1.045       .  S
N1552      H1556   1.046       .  S
C1557      C1558   1.408       .  A
C1557      C1562   1.410       .  A
C1557      H1564   1.084       .  S
C1558      C1559   1.418       .  A
C1559      C1560   1.402       .  A
C1559      N1566   1.439       .  S
C1560      C1561   1.402       .  A
C1560      H1565   1.084       .  S
C1561      C1562   1.414       .  A
C1562      N1563   1.431       .  S
N1563      H1567   1.045       .  S
N1563      H1568   1.045       .  S
N1566      H1569   1.043       .  S
N1566      H1570   1.045       .  S
C1571      C1572   1.405       .  A
C1571      C1576   1.398       .  A
C1571      H1578   1.084       .  S
C1572      C1573   1.415       .  A
C1573      C1574   1.411       .  A
C1573      N1580   1.431       .  S
C1574      C1575   1.408       .  A
C1574      H1579   1.083       .  S
C1575      C1576   1.412       .  A
C1576      N1577   1.433       .  S
N1577      H1581   1.045       .  S
N1577      H1582   1.045       .  S
N1580      H1583   1.045       .  S
N1580      H1584   1.045       .  S
C1585      C1586   1.403       .  A
C1585      C1590   1.404       .  A
C1585      H1592   1.084   1_565  S
C1586      C1587   1.408       .  A
C1587      C1588   1.389       .  A
C1587      N1594   1.434       .  S
C1588      C1589   1.405       .  A
C1588      H1593   1.082       .  S
C1589      C1590   1.409       .  A
C1590      N1591   1.432   1_565  S
N1591      H1595   1.046       .  S
N1591      H1596   1.045       .  S
N1594      H1597   1.045       .  S
N1594      H1598   1.045       .  S
C1599      C1600   1.402       .  A
C1599      C1604   1.410       .  A
C1599      H1606   1.084   1_565  S
C1600      C1601   1.408       .  A
C1601      C1602   1.393       .  A
C1601      N1608   1.433       .  S
C1602      C1603   1.406       .  A
C1602      H1607   1.082       .  S
C1603      C1604   1.416       .  A
C1604      N1605   1.437   1_565  S
N1605      H1609   1.045       .  S
N1605      H1610   1.046       .  S
N1608      H1611   1.045       .  S
N1608      H1612   1.045       .  S
C1613      C1614   1.402       .  A
C1613      C1618   1.400       .  A
C1613      H1620   1.084       .  S
C1614      C1615   1.421       .  A
C1615      C1616   1.415       .  A
C1615      N1622   1.437       .  S
C1616      C1617   1.406       .  A
C1616      H1621   1.083       .  S
C1617      C1618   1.408       .  A
C1618      N1619   1.432       .  S
N1619      H1623   1.046       .  S
N1619      H1624   1.045       .  S
C1627      C1628   1.410       .  A
C1627      C1632   1.419       .  A
C1627      H1634   1.083       .  S
C1628      C1629   1.404       .  A
C1629      C1630   1.402       .  A
C1629      N1636   1.433       .  S
C1630      C1631   1.408       .  A
C1630      H1635   1.084       .  S
C1631      C1632   1.413       .  A
C1632      N1633   1.436       .  S
N1633      H1637   1.046       .  S
N1633      H1638   1.045       .  S
N1636      H1639   1.045       .  S
N1636      H1640   1.046       .  S
C1641      C1642   1.398       .  A
C1641      H1648   1.084       .  S
C1642      C1643   1.411       .  A
C1643      N1650   1.433       .  S
C1644      C1645   1.404       .  A
C1644      H1649   1.084       .  S
C1645      C1646   1.421       .  A
C1646      N1647   1.433       .  S
N1647      H1651   1.045       .  S
N1647      H1652   1.044       .  S
N1650      H1653   1.046       .  S
N1650      H1654   1.044       .  S
C1655      C1656   1.404       .  A
C1655      C1660   1.401       .  A
C1655      H1662   1.083       .  S
C1656      C1657   1.405       .  A
C1657      C1658   1.403       .  A
C1657      N1664   1.432       .  S
C1658      C1659   1.404       .  A
C1658      H1663   1.084       .  S
C1659      C1660   1.407       .  A
C1660      N1661   1.438       .  S
N1661      H1665   1.046       .  S
N1661      H1666   1.046       .  S
N1664      H1667   1.045       .  S
N1664      H1668   1.046       .  S
C1669      C1674   1.403   1_545  A
C1669      H1676   1.084       .  S
C1670      C1671   1.413       .  A
C1671      N1678   1.439       .  S
C1672      C1673   1.405       .  A
C1672      H1677   1.084       .  S
C1673      C1674   1.419       .  A
C1674      N1675   1.439       .  S
N1675      H1679   1.045       .  S
N1675      H1680   1.043       .  S
N1678      H1681   1.044       .  S
N1678      H1682   1.045       .  S
C1683      C1684   1.401       .  A
C1683      C1688   1.401       .  A
C1683      H1690   1.084       .  S
C1684      C1685   1.409       .  A
C1685      C1686   1.400       .  A
C1685      N1692   1.431       .  S
C1686      C1687   1.400       .  A
C1686      H1691   1.084       .  S
C1687      C1688   1.412       .  A
C1688      N1689   1.432       .  S
N1689      H1693   1.045       .  S
N1689      H1694   1.046       .  S
N1692      H1695   1.046       .  S
N1692      H1696   1.042       .  S
C1697      C1698   1.404   1_545  A
C1697      H1704   1.084   1_545  S
C1698      C1699   1.417       .  A
C1699      N1706   1.438       .  S
C1700      C1701   1.404       .  A
C1700      H1705   1.084       .  S
C1701      C1702   1.413       .  A
C1702      N1703   1.433       .  S
N1703      H1707   1.045       .  S
N1703      H1708   1.046       .  S
N1706      H1709   1.043       .  S
N1706      H1710   1.046       .  S
C1711      C1712   1.404       .  A
C1711      C1716   1.404       .  A
C1711      H1718   1.084       .  S
C1712      C1713   1.408       .  A
C1713      C1714   1.408       .  A
C1713      N1720   1.437       .  S
C1714      C1715   1.407       .  A
C1714      H1719   1.084       .  S
C1715      C1716   1.412       .  A
C1716      N1717   1.438       .  S
N1717      H1721   1.045       .  S
N1717      H1722   1.046       .  S
N1720      H1723   1.045       .  S
N1720      H1724   1.046       .  S
C1725      C1726   1.407       .  A
C1725      H1732   1.084       .  S
C1727      C1728   1.407       .  A
C1727      N1734   1.437       .  S
C1728      C1729   1.403       .  A
C1728      H1733   1.084       .  S
C1729      C1730   1.411       .  A
C1730      N1731   1.432       .  S
N1731      H1736   1.046       .  S
N1734      H1738   1.046       .  S
C1739      C1740   1.405       .  A
C1739      C1744   1.402       .  A
C1739      H1746   1.083       .  S
C1740      C1741   1.411       .  A
C1741      C1742   1.404       .  A
C1741      N1748   1.432       .  S
C1742      C1743   1.403       .  A
C1742      H1747   1.084       .  S
C1743      C1744   1.409       .  A
C1744      N1745   1.433       .  S
N1745      H1749   1.045       .  S
N1745      H1750   1.046       .  S
N1748      H1751   1.045       .  S
N1748      H1752   1.046       .  S
C1753      C1754   1.403       .  A
C1753      C1758   1.400       .  A
C1753      H1760   1.084       .  S
C1754      C1755   1.410       .  A
C1755      C1756   1.396       .  A
C1755      N1762   1.433       .  S
C1756      C1757   1.400       .  A
C1756      H1761   1.080       .  S
C1757      C1758   1.412       .  A
C1758      N1759   1.431       .  S
N1759      H1763   1.045       .  S
N1759      H1764   1.045       .  S
N1762      H1765   1.045       .  S
N1762      H1766   1.045       .  S
C1767      C1768   1.404       .  A
C1767      C1772   1.393       .  A
C1767      H1774   1.083       .  S
C1768      C1769   1.412       .  A
C1769      C1770   1.411       .  A
C1769      N1776   1.437       .  S
C1770      C1771   1.405       .  A
C1770      H1775   1.083       .  S
C1771      C1772   1.408       .  A
C1772      N1773   1.432       .  S
N1773      H1777   1.045       .  S
N1773      H1778   1.045       .  S
N1776      H1779   1.046       .  S
N1776      H1780   1.045       .  S
C1781      C1782   1.398       .  A
C1781      C1786   1.391       .  A
C1781      H1788   1.085       .  S
C1782      C1783   1.411       .  A
C1783      C1784   1.412       .  A
C1783      N1790   1.437       .  S
C1784      C1785   1.409       .  A
C1784      H1789   1.082       .  S
C1785      C1786   1.421       .  A
C1786      N1787   1.432       .  S
N1787      H1791   1.044       .  S
N1787      H1792   1.044       .  S
N1790      H1793   1.046       .  S
N1790      H1794   1.045       .  S
C1795      C1796   1.396       .  A
C1795      C1800   1.396       .  A
C1795      H1802   1.085       .  S
C1796      C1797   1.417       .  A
C1797      C1798   1.409       .  A
C1797      N1804   1.438       .  S
C1798      C1799   1.407       .  A
C1798      H1803   1.083       .  S
C1799      C1800   1.418       .  A
C1800      N1801   1.433       .  S
N1801      H1805   1.045       .  S
N1801      H1806   1.046       .  S
N1804      H1807   1.043       .  S
N1804      H1808   1.046       .  S
C1809      C1810   1.395       .  A
C1809      C1814   1.393       .  A
C1809      H1816   1.085       .  S
C1810      C1811   1.417       .  A
C1811      C1812   1.410       .  A
C1811      N1818   1.437       .  S
C1812      C1813   1.407       .  A
C1812      H1817   1.084       .  S
C1813      C1814   1.412       .  A
C1814      N1815   1.429       .  S
N1815      H1819   1.045       .  S
N1815      H1820   1.045       .  S
N1818      H1821   1.044       .  S
N1818      H1822   1.046       .  S
C1823      C1824   1.403       .  A
C1823      C1828   1.405       .  A
C1823      H1830   1.084       .  S
C1824      C1825   1.406       .  A
C1825      C1826   1.389       .  A
C1825      N1832   1.433       .  S
C1826      C1827   1.406       .  A
C1826      H1831   1.080       .  S
C1827      C1828   1.418       .  A
C1828      N1829   1.432       .  S
N1829      H1833   1.045       .  S
N1829      H1834   1.045       .  S
N1832      H1835   1.045       .  S
N1832      H1836   1.045       .  S
C1837      C1838   1.400       .  A
C1837      C1842   1.395       .  A
C1837      H1844   1.084       .  S
C1838      C1839   1.410       .  A
C1839      C1840   1.408       .  A
C1839      N1846   1.437   1_565  S
C1840      C1841   1.402       .  A
C1840      H1845   1.084   1_565  S
C1841      C1842   1.415       .  A
C1842      N1843   1.434       .  S
N1843      H1847   1.044       .  S
N1843      H1848   1.045       .  S
N1846      H1849   1.046       .  S
C1851      C1852   1.404       .  A
C1851      C1856   1.397       .  A
C1851      H1858   1.084       .  S
C1852      C1853   1.413       .  A
C1853      C1854   1.406   1_565  A
C1853      N1860   1.431   1_565  S
C1854      C1855   1.405   1_545  A
C1854      H1859   1.084       .  S
C1855      C1856   1.412       .  A
C1856      N1857   1.433       .  S
N1857      H1861   1.045       .  S
N1857      H1862   1.045       .  S
N1860      H1863   1.045       .  S
N1860      H1864   1.045       .  S
N1865      H1897   1.026       .  S
N1865      C2802   1.353       .  A
N1865      C1869   1.355       .  A
N1866      C1874   1.349       .  A
N1867      H1898   1.024       .  S
N1867      C1872   1.357   1_545  A
N1867      C2803   1.358   1_545  A
N1868      C1876   1.354       .  A
C1869      C1877   1.388       .  A
C1869      C1885   1.418       .  A
C1870      N2797   1.351       .  A
C1870      C1886   1.410       .  A
C1870      C1878   1.385       .  A
C1871      N2799   1.353       .  A
C1871      C1879   1.388       .  A
C1871      C1888   1.417       .  A
C1872      C1887   1.424   1_565  A
C1872      C1880   1.389       .  A
C1873      C1885   1.413       .  A
C1873      C1881   1.385       .  A
C1874      C1888   1.411       .  A
C1874      C1882   1.386       .  A
C1875      C1883   1.385   1_565  A
C1875      C1886   1.411       .  A
C1876      C1884   1.388       .  A
C1876      C1887   1.422       .  A
C1877      C2810   1.374       .  A
C1877      H1889   1.082       .  S
C1878      C2809   1.375       .  A
C1878      H1890   1.082       .  S
C1879      C2812   1.375       .  A
C1879      H1891   1.082       .  S
C1880      C2811   1.373       .  A
C1880      H1892   1.080       .  S
C1881      H1893   1.082       .  S
C1882      H1894   1.082       .  S
C1883      H1895   1.082       .  S
C1884      H1896   1.082       .  S
C1885      C2787   1.488       .  S
C1886      C2756   1.483   1_565  S
C1887      C2742   1.496       .  S
C1888      C2770   1.494       .  S
N1899      H1931   1.040       .  S
N1899      C1904   1.351       .  A
N1899      C1903   1.354       .  A
N1900      C1908   1.345       .  A
N1901      H1932   1.040       .  S
N1901      C1906   1.350       .  A
N1901      C1905   1.351       .  A
N1902      C1910   1.350       .  A
C1903      C1911   1.385       .  A
C1903      C1919   1.411       .  A
C1904      C1920   1.415       .  A
C1904      C1912   1.389       .  A
C1905      C1913   1.388       .  A
C1905      C1922   1.412       .  A
C1906      C1921   1.410       .  A
C1906      C1914   1.386       .  A
C1907      C1919   1.407       .  A
C1907      C1915   1.385       .  A
C1908      C1922   1.403       .  A
C1908      C1916   1.386       .  A
C1909      C1917   1.387       .  A
C1909      C1920   1.413       .  A
C1910      C1918   1.385       .  A
C1910      C1921   1.410       .  A
C1911      C1912   1.373       .  A
C1911      H1923   1.082       .  S
C1912      H1924   1.082       .  S
C1913      C1914   1.374       .  A
C1913      H1925   1.082       .  S
C1914      H1926   1.083       .  S
C1915      H1927   1.082       .  S
C1916      H1928   1.082       .  S
C1917      H1929   1.082       .  S
C1918      H1930   1.082       .  S
C1919      C2686   1.487       .  S
C1920      C2714   1.481       .  S
C1921      C2728   1.485       .  S
C1922      C2703   1.475       .  S
C1933      N1951   1.357       .  A
C1933      C1970   1.448       .  S
C1933      C2784   1.477       .  S
N1934      N1951   1.331       .  A
N1934      N1956   1.319       .  A
N1934     Co1971   2.107       .  S
C1935      N1960   1.343       .  A
C1935      H1980   1.081       .  S
C1935      C1973   1.460       .  S
H1936      C1977   1.081       .  S
C1937      N1961   1.337       .  A
C1937      H1966   1.082       .  S
C1937      C1941   1.461       .  S
Co1938     N1956   2.065       .  S
Co1938     N1946   2.075       .  S
Co1938     N1978   2.075       .  S
Co1938     N1954   2.074       .  S
Co1938    Cl1982   2.439       .  S
N1939      C1977   1.344       .  A
N1939      N1946   1.318       .  A
N1939     Co1940   2.085       .  S
Co1940     N1943   2.087       .  S
Co1940     N1960   2.090       .  S
Co1940     N1947   2.079       .  S
Co1940    Cl1982   2.463       .  S
C1941      N1979   1.353       .  A
C1941      C2672   1.473       .  S
N1942      N1949   1.320       .  A
N1942      N1972   1.323       .  A
N1942     Co1975   2.084       .  S
N1943      N1961   1.319       .  A
N1943      N1979   1.325       .  A
N1944      C1973   1.347       .  A
N1944      N1954   1.322       .  A
H1945      C1970   1.081       .  S
N1946      N1967   1.320       .  A
N1947      N1965   1.320       .  A
N1947      N1952   1.323       .  A
C1948      N1952   1.350       .  A
C1948      C1976   1.465       .  S
C1948      C2644   1.476       .  S
N1949      C1964   1.341       .  A
N1949     Co1971   2.084       .  S
C1950      N1978   1.336       .  A
C1950      H1984   1.081       .  S
C1950      C1953   1.454       .  S
C1953      N1974   1.350       .  A
C1953      C2773   1.469       .  S
N1954      N1960   1.320       .  A
N1955      C1981   1.340       .  A
N1955      N1957   1.320       .  A
N1955     Co1971   2.092       .  S
N1956      C1970   1.332       .  A
N1957      N1985   1.324       .  A
N1957     Co1975   2.084       .  S
H1958      C1981   1.082       .  S
H1959      C1976   1.082       .  S
N1961     Co1975   2.082       .  S
N1962      N1974   1.328       .  A
N1962      N1978   1.320       .  A
N1962     Co1971   2.089       .  S
C1963      N1967   1.346       .  A
C1963      C1977   1.467       .  S
C1963      C2731   1.484       .  S
C1964      H1968   1.082       .  S
C1964      C1983   1.463       .  S
N1965      C1976   1.343       .  A
N1965     Co1975   2.097       .  S
C1969      N1985   1.352       .  A
C1969      C1981   1.462       .  S
C1969      C2630   1.474       .  S
Co1971    Cl1982   2.458       .  S
N1972      C1983   1.351       .  A
C1973      C2717   1.473       .  S
Co1975    Cl1982   2.439       .  S
C1983      C2658   1.478       .  S
C1986      N2004   1.356       .  A
C1986      C2023   1.456       .  S
C1986      C2759   1.487       .  S
N1987      N2004   1.329       .  A
N1987      N2009   1.317       .  A
N1987     Co2024   2.100       .  S
C1988      N2013   1.350       .  A
C1988      H2033   1.079       .  S
C1988      C2026   1.479       .  S
H1989      C2030   1.081       .  S
C1990      N2014   1.343       .  A
C1990      H2019   1.082       .  S
C1990      C1994   1.466       .  S
Co1991     N2009   2.061       .  S
Co1991     N1999   2.068       .  S
Co1991     N2031   2.071       .  S
Co1991     N2007   2.062       .  S
Co1991    Cl2035   2.433       .  S
N1992      C2030   1.342       .  A
N1992      N1999   1.318       .  A
N1992     Co1993   2.081       .  S
Co1993     N1996   2.099       .  S
Co1993     N2013   2.104       .  S
Co1993     N2000   2.071       .  S
Co1993    Cl2035   2.462       .  S
C1994      N2032   1.353       .  A
C1994      C2616   1.481       .  S
N1995      N2002   1.320       .  A
N1995      N2025   1.326       .  A
N1995     Co2028   2.101       .  S
N1996      N2014   1.320       .  A
N1996      N2032   1.326       .  A
N1997      C2026   1.346       .  A
N1997      N2007   1.316       .  A
H1998      C2023   1.081       .  S
N1999      N2020   1.319       .  A
N2000      N2018   1.318       .  A
N2000      N2005   1.322       .  A
C2001      N2005   1.350       .  A
C2001      C2029   1.467       .  S
C2001      C2588   1.477       .  S
N2002      C2017   1.338       .  A
N2002     Co2024   2.078       .  S
C2003      N2031   1.334       .  A
C2003      H2037   1.081       .  S
C2003      C2006   1.452       .  S
C2006      N2027   1.355       .  A
C2006      C2745   1.479       .  S
N2007      N2013   1.316       .  A
N2008      C2034   1.342       .  A
N2008      N2010   1.319       .  A
N2008     Co2024   2.089       .  S
N2009      C2023   1.332       .  A
N2010      N2038   1.319       .  A
N2010     Co2028   2.074       .  S
H2011      C2034   1.082       .  S
H2012      C2029   1.082       .  S
N2014     Co2028   2.092       .  S
N2015      N2027   1.331       .  A
N2015      N2031   1.319       .  A
N2015     Co2024   2.100       .  S
C2016      N2020   1.345       .  A
C2016      C2030   1.461       .  S
C2016      C2700   1.469       .  S
C2017      H2021   1.082       .  S
C2017      C2036   1.460       .  S
N2018      C2029   1.340       .  A
N2018     Co2028   2.089       .  S
C2022      N2038   1.346       .  A
C2022      C2034   1.467       .  S
C2022      C2577   1.478       .  S
Co2024    Cl2035   2.464       .  S
N2025      C2036   1.354       .  A
C2026      C2689   1.496       .  S
Co2028    Cl2035   2.435       .  S
C2036      C2602   1.477       .  S
N2039      H2071   1.036       .  S
N2039      C2976   1.355   1_554  A
N2039      C2043   1.356       .  A
N2040      C2047   1.349       .  A
N2040      C2048   1.350       .  A
N2041      H2072   1.035       .  S
N2041      C2978   1.354   1_554  A
N2041      C2045   1.355       .  A
N2042      C2049   1.355       .  A
N2042      C2050   1.357       .  A
C2043      C2051   1.387       .  A
C2043      C2059   1.419       .  A
C2044      N2971   1.352   1_556  A
C2044      C2060   1.416       .  A
C2044      C2984   1.389   1_545  A
C2045      C2053   1.389       .  A
C2045      C2062   1.420       .  A
C2046      N2973   1.351   1_556  A
C2046      C2061   1.414       .  A
C2046      C2054   1.387   1_545  A
C2047      C2059   1.411       .  A
C2047      C2055   1.386       .  A
C2048      C2062   1.411       .  A
C2048      C2056   1.386       .  A
C2049      C2057   1.387       .  A
C2049      C2060   1.422       .  A
C2050      C2058   1.386       .  A
C2050      C2061   1.422       .  A
C2051      C2052   1.372   1_554  A
C2051      H2063   1.082       .  S
C2052      C2976   1.387       .  A
C2052      H2996   1.081       .  S
C2053      C2986   1.373   1_554  A
C2053      H2065   1.082       .  S
C2054      C2985   1.373   1_556  A
C2054      H2066   1.082       .  S
C2055      C2056   1.375       .  A
C2055      H2067   1.082       .  S
C2056      H2068   1.082       .  S
C2057      C2058   1.381       .  A
C2057      H2069   1.082       .  S
C2058      H2070   1.082       .  S
C2059      C2532   1.488       .  S
C2060      C2560   1.492       .  S
C2061      C2546   1.495       .  S
C2062      C2518   1.487       .  S
H2064      C2984   1.082       .  S
N2073      H2105   1.043       .  S
N2073      C2078   1.351   1_554  A
N2073      C2077   1.351       .  A
N2074      C2081   1.349       .  A
N2074      C2082   1.350       .  A
N2075      H2106   1.042       .  S
N2075      C2080   1.353   1_554  A
N2075      C2079   1.356       .  A
N2076      C2083   1.355       .  A
N2076      C2084   1.353       .  A
C2077      C2085   1.388       .  A
C2077      C2093   1.413       .  A
C2078      C2094   1.412       .  A
C2078      C2086   1.387       .  A
C2079      C2087   1.386       .  A
C2079      C2096   1.419       .  A
C2080      C2095   1.415       .  A
C2080      C2088   1.387       .  A
C2081      C2093   1.409       .  A
C2081      C2089   1.385       .  A
C2082      C2096   1.411       .  A
C2082      C2090   1.386       .  A
C2083      C2091   1.385       .  A
C2083      C2094   1.419       .  A
C2084      C2092   1.387       .  A
C2084      C2095   1.420       .  A
C2085      C2086   1.374   1_554  A
C2085      H2097   1.082       .  S
C2086      H2098   1.083       .  S
C2087      C2088   1.375   1_554  A
C2087      H2099   1.082       .  S
C2088      H2100   1.082       .  S
C2089      C2090   1.376       .  A
C2089      H2101   1.082       .  S
C2090      H2102   1.082       .  S
C2091      C2092   1.382       .  A
C2091      H2103   1.082       .  S
C2092      H2104   1.082       .  S
C2093      C2462   1.482       .  S
C2094      C2493   1.497       .  S
C2095      C2507   1.491       .  S
C2096      C2476   1.496       .  S
C2107      N2125   1.335       .  A
C2107      C2144   1.480       .  S
C2107      C2563   1.480       .  S
N2108      N2125   1.315       .  A
N2108      N2130   1.322       .  A
N2108     Co2145   2.055       .  S
C2109      N2134   1.352       .  A
C2109      H2154   1.079       .  S
C2109      C2147   1.482       .  S
H2110      C2151   1.082       .  S
C2111      N2135   1.354       .  A
C2111      H2140   1.081       .  S
C2111      C2115   1.475       .  S
Co2112     N2130   2.123       .  S
Co2112     N2152   2.086       .  S
Co2112    Cl2156   2.468       .  S
N2113      C2151   1.333       .  A
N2113      N2120   1.321       .  A
N2113     Co2114   2.075       .  S
Co2114     N2117   2.062       .  S
Co2114     N2134   2.108       .  S
Co2114     N2121   2.105       .  S
C2115      N2153   1.335       .  A
C2115      C2490   1.473       .  S
N2116      N2123   1.320       .  A
N2116      N2146   1.336       .  A
N2116     Co2149   2.119       .  S
N2117      N2135   1.323       .  A
N2117      N2153   1.316       .  A
N2118      C2147   1.347       .  A
N2118      N2128   1.318       .  A
H2119      C2144   1.081       .  S
N2120      N2141   1.334       .  A
N2121      N2139   1.320       .  A
N2121      N2126   1.333       .  A
C2122      N2126   1.361       .  A
C2122      C2150   1.445       .  S
C2122      C2420   1.481       .  S
N2123      C2138   1.329       .  A
N2123     Co2145   2.061       .  S
C2124      N2152   1.337       .  A
C2124      H2158   1.082       .  S
C2124      C2127   1.452       .  S
C2127      N2148   1.357       .  A
C2127      C2434   1.482       .  S
N2128      N2134   1.319       .  A
N2129      C2155   1.348       .  A
N2129      N2131   1.320       .  A
N2129     Co2145   2.096       .  S
N2130      C2144   1.356       .  A
N2131      N2159   1.319       .  A
N2131     Co2149   2.070       .  S
H2132      C2155   1.081       .  S
H2133      C2150   1.081       .  S
N2136      N2148   1.331       .  A
N2136      N2152   1.321       .  A
N2136     Co2145   2.102       .  S
C2137      N2141   1.362       .  A
C2137      C2151   1.446       .  S
C2137      C2549   1.482       .  S
C2138      H2142   1.082       .  S
C2138      C2157   1.442       .  S
N2139      C2150   1.326       .  A
C2143      N2159   1.341       .  A
C2143      C2155   1.469       .  S
C2143      C2448   1.473       .  S
Co2145    Cl2156   2.442       .  S
N2146      C2157   1.363       .  A
C2147      C2406   1.501       .  S
Co2149    Cl2156   2.461       .  S
C2157      C2504   1.485       .  S
N2160      H2192   1.038       .  S
N2160      C2165   1.352       .  A
N2160      C2164   1.354       .  A
N2161      C2168   1.352       .  A
N2161      C2169   1.350       .  A
N2162      H2193   1.041       .  S
N2162      C2167   1.354       .  A
N2162      C2166   1.351       .  A
N2163      C2170   1.349       .  A
N2163      C2171   1.350       .  A
C2164      C2172   1.387       .  A
C2164      C2180   1.418       .  A
C2165      C2181   1.415       .  A
C2165      C2173   1.386       .  A
C2166      C2174   1.388       .  A
C2166      C2183   1.414       .  A
C2167      C2182   1.413       .  A
C2167      C2175   1.386       .  A
C2168      C2180   1.413       .  A
C2168      C2176   1.386       .  A
C2169      C2183   1.413       .  A
C2169      C2177   1.387       .  A
C2170      C2178   1.387       .  A
C2170      C2181   1.410       .  A
C2171      C2179   1.386       .  A
C2171      C2182   1.409       .  A
C2172      C2173   1.380       .  A
C2172      H2184   1.082       .  S
C2173      H2185   1.082       .  S
C2174      C2175   1.377       .  A
C2174      H2186   1.082       .  S
C2175      H2187   1.082       .  S
C2176      C2177   1.373       .  A
C2176      H3120   1.082       .  S
C2177      H3121   1.082       .  S
C2178      C2179   1.370       .  A
C2178      H2190   1.082       .  S
C2179      H2191   1.082       .  S
C2180      C2409   1.491       .  S
C2181      C2423   1.481       .  S
C2182      C2591   1.488       .  S
C2183      C2574   1.488       .  S
H2188      C3108   1.082   1_545  S
H2189      C3109   1.082   1_545  S
N2194      H2226   1.035       .  S
N2194      C2199   1.352       .  A
N2194      C2198   1.355       .  A
N2195      C2202   1.353       .  A
N2195      C2203   1.352       .  A
N2196      H2227   1.037       .  S
N2196      C2201   1.354       .  A
N2196      C2200   1.354       .  A
N2197      C2204   1.353       .  A
N2197      C2205   1.354       .  A
C2198      C2206   1.386       .  A
C2198      C2214   1.417       .  A
C2199      C2215   1.416       .  A
C2199      C2207   1.388       .  A
C2200      C2208   1.388       .  A
C2200      C2217   1.421       .  A
C2201      C2216   1.415       .  A
C2201      C2209   1.385       .  A
C2202      C2214   1.416       .  A
C2202      C2210   1.385       .  A
C2203      C2217   1.418       .  A
C2203      C2211   1.387       .  A
C2204      C2212   1.387       .  A
C2204      C2215   1.418       .  A
C2205      C2213   1.386       .  A
C2205      C2216   1.416       .  A
C2206      C2207   1.374       .  A
C2206      H2218   1.082       .  S
C2207      H2219   1.082       .  S
C2208      C2209   1.377       .  A
C2208      H3152   1.082       .  S
C2209      H3153   1.082       .  S
C2210      C2211   1.373       .  A
C2210      H2222   1.082       .  S
C2211      H2223   1.082       .  S
C2212      C2213   1.374       .  A
C2212      H2224   1.082       .  S
C2213      H2225   1.082       .  S
C2214      C2619   1.493       .  S
C2215      C2451   1.484       .  S
C2216      C2437   1.494       .  S
C2217      C2605   1.495       .  S
H2220      C3140   1.082   1_545  S
H2221      C3141   1.082   1_545  S
N2228      H2260   1.039       .  S
N2228      C2233   1.355       .  A
N2228      C2232   1.354       .  A
N2229      C2236   1.351       .  A
N2229      C2237   1.352       .  A
N2230      H2261   1.040       .  S
N2230      C2235   1.353       .  A
N2230      C2234   1.353       .  A
N2231      C2238   1.352       .  A
N2231      C2239   1.350       .  A
C2232      C2240   1.388       .  A
C2232      C2248   1.418       .  A
C2233      C2249   1.415       .  A
C2233      C2241   1.386       .  A
C2234      C2242   1.386       .  A
C2234      C2251   1.414       .  A
C2235      C2250   1.416       .  A
C2235      C2243   1.388       .  A
C2236      C2248   1.416       .  A
C2236      C2244   1.387       .  A
C2237      C2251   1.413       .  A
C2237      C2245   1.385       .  A
C2238      C2246   1.386       .  A
C2238      C2249   1.411       .  A
C2239      C2247   1.386       .  A
C2239      C2250   1.413       .  A
C2240      C2241   1.376       .  A
C2240      H2252   1.082       .  S
C2241      H2253   1.082       .  S
C2242      C2243   1.374       .  A
C2242      H2254   1.082       .  S
C2243      H2255   1.082       .  S
C2244      C2245   1.375       .  A
C2244      H2256   1.082       .  S
C2245      H2257   1.082       .  S
C2246      C2247   1.372       .  A
C2246      H3190   1.082   1_545  S
C2247      H3191   1.082   1_545  S
C2248      C2647   1.494       .  S
C2249      C2633   1.489       .  S
C2250      C2378   1.489       .  S
C2251      C2395   1.488       .  S
H2258      C3178   1.082       .  S
H2259      C3179   1.082       .  S
N2262      H2294   1.038       .  S
N2262      C2267   1.354       .  A
N2262      C2266   1.352       .  A
N2263      C2270   1.351       .  A
N2263      C2271   1.351       .  A
N2264      H2295   1.038       .  S
N2264      C2269   1.353       .  A
N2264      C2268   1.352       .  A
N2265      C2272   1.350       .  A
N2265      C2273   1.349       .  A
C2266      C2274   1.387       .  A
C2266      C2282   1.415       .  A
C2267      C2283   1.415       .  A
C2267      C2275   1.387       .  A
C2268      C2276   1.386       .  A
C2268      C2285   1.413       .  A
C2269      C2284   1.414       .  A
C2269      C2277   1.387       .  A
C2270      C2282   1.414       .  A
C2270      C2278   1.387       .  A
C2271      C2285   1.412       .  A
C2271      C2279   1.386       .  A
C2272      C2280   1.386       .  A
C2272      C2283   1.411       .  A
C2273      C2281   1.386       .  A
C2273      C2284   1.411       .  A
C2274      C2275   1.377       .  A
C2274      H3218   1.082       .  S
C2275      H3219   1.082       .  S
C2276      C2277   1.375       .  A
C2276      H2288   1.082       .  S
C2277      H2289   1.082       .  S
C2278      C2279   1.373       .  A
C2278      H2290   1.082       .  S
C2279      H2291   1.082       .  S
C2280      C2281   1.372       .  A
C2280      H2292   1.082       .  S
C2281      H2293   1.082       .  S
C2282      C2661   1.487       .  S
C2283      C2350   1.485       .  S
C2284      C2364   1.484       .  S
C2285      C2675   1.485       .  S
H2286      C3206   1.082       .  S
H2287      C3207   1.082       .  S
C2296      N2314   1.356       .  A
C2296      C2333   1.450       .  S
C2296      C2535   1.480       .  S
N2297      N2314   1.330       .  A
N2297      N2319   1.319       .  A
N2297     Co2334   2.104       .  S
C2298      H2343   1.081       .  S
C2298      C2336   1.460       .  S
H2299      C2340   1.081       .  S
C2300      N2324   1.340       .  A
C2300      H2329   1.082       .  S
C2300      C2304   1.462       .  S
Co2301     N2319   2.067       .  S
Co2301     N2309   2.078       .  S
Co2301     N2341   2.075   1_655  S
Co2301     N2317   2.075   1_655  S
Co2301    Cl2345   2.439       .  S
N2302      C2340   1.349       .  A
N2302      N2309   1.320       .  A
N2302     Co2303   2.106       .  S
Co2303     N2306   2.070       .  S
Co2303     N2323   2.079   1_655  S
Co2303    Cl2345   2.461       .  S
C2304      N2342   1.348       .  A
C2304      C2367   1.466       .  S
N2305      N2312   1.320       .  A
N2305      N2335   1.324       .  A
N2305     Co2338   2.086       .  S
N2306      N2324   1.319       .  A
N2306      N2342   1.320       .  A
N2307      C2336   1.346       .  A
H2308      C2333   1.081       .  S
N2309      N2330   1.323       .  A
N2310      N2328   1.320       .  A
N2310      N2315   1.325       .  A
C2311      N2315   1.352       .  A
C2311      C2339   1.462       .  S
C2311      C2392   1.476       .  S
N2312      C2327   1.340       .  A
N2312     Co2334   2.090       .  S
C2313      H2347   1.081       .  S
C2313      C2316   1.456       .  S
C2316      N2337   1.353       .  A
C2316      C2521   1.480       .  S
N2317      N2323   1.318       .  A
N2318      C2344   1.342       .  A
N2318      N2320   1.320       .  A
N2319      C2333   1.335       .  A
N2320      N2348   1.325       .  A
H2321      C2344   1.082       .  S
H2322      C2339   1.082       .  S
N2324     Co2338   2.086       .  S
N2325      N2341   1.320       .  A
N2325     Co2334   2.098   1_455  S
C2326      N2330   1.345       .  A
C2326      C2340   1.466       .  S
C2326      C2479   1.478       .  S
C2327      H2331   1.082       .  S
C2327      C2346   1.464       .  S
N2328      C2339   1.339       .  A
C2332      N2348   1.353       .  A
C2332      C2344   1.464       .  S
C2332      C2381   1.483       .  S
Co2334    Cl2345   2.461       .  S
N2335      C2346   1.351       .  A
C2336      C2465   1.465       .  S
Co2338    Cl2345   2.442       .  S
C2346      C2353   1.473       .  S
C2349      C2350   1.402       .  A
C2349      C3286   1.403       .  A
C2349      H3288   1.084       .  S
C2350      C2351   1.410       .  A
C2351      C2352   1.406   1_545  A
C2351      N2358   1.437       .  S
C2352      C3285   1.399       .  A
C2352      H2357   1.084       .  S
C2353      C3284   1.401       .  A
C2353      C2354   1.408       .  A
C2354      C3281   1.402       .  A
C2354      N2355   1.433       .  S
N2355      H2359   1.045       .  S
N2355      H2360   1.045       .  S
H2356      C3281   1.084       .  S
N2358      H2361   1.045       .  S
N2358      H2362   1.046       .  S
C2363      C2364   1.404       .  A
C2363      C2368   1.404       .  A
C2363      H2370   1.084       .  S
C2364      C2365   1.418       .  A
C2365      C2366   1.398       .  A
C2365      N2372   1.439       .  S
C2366      C2367   1.401       .  A
C2366      H2371   1.085       .  S
C2367      C2368   1.404       .  A
C2368      N2369   1.437       .  S
N2369      H2373   1.046       .  S
N2369      H2374   1.046       .  S
N2372      H2375   1.042       .  S
N2372      H2376   1.045       .  S
C2377      C2378   1.402       .  A
C2377      C3314   1.405       .  A
C2377      H2384   1.084       .  S
C2378      C2379   1.408       .  A
C2379      C3312   1.402   1_545  A
C2379      N2386   1.433       .  S
C2380      C3311   1.406       .  A
C2380      C2381   1.404       .  A
C2380      H2385   1.083       .  S
C2381      C2382   1.411       .  A
C2382      C3309   1.410       .  A
C2382      N2383   1.437       .  S
N2383      H2387   1.046       .  S
N2383      H2388   1.046       .  S
N2386      H2389   1.046   1_545  S
C2391      C2392   1.403       .  A
C2391      C2396   1.398       .  A
C2391      H2398   1.084       .  S
C2392      C2393   1.407       .  A
C2393      C2394   1.407       .  A
C2393      N2400   1.432       .  S
C2394      C2395   1.404       .  A
C2394      H2399   1.084       .  S
C2395      C2396   1.412       .  A
C2396      N2397   1.433       .  S
N2397      H2402   1.046       .  S
N2400      H2403   1.046       .  S
N2400      H2404   1.045       .  S
C2405      C2406   1.410   1_565  A
C2405      C3342   1.396       .  A
C2405      H2412   1.083       .  S
C2406      C2407   1.420       .  A
C2407      C3340   1.412   1_545  A
C2407      N2414   1.430       .  S
C2408      C3339   1.408       .  A
C2408      C2409   1.406       .  A
C2408      H2413   1.084       .  S
C2409      C2410   1.407       .  A
C2410      C3337   1.395       .  A
N2411      H2415   1.045       .  S
N2411      H2416   1.045       .  S
N2414      H2417   1.045       .  S
N2414      H2418   1.045       .  S
C2419      C2420   1.406       .  A
C2419      C2424   1.392       .  A
C2419      H2426   1.082       .  S
C2420      C2421   1.410       .  A
C2421      C2422   1.411       .  A
C2421      N2428   1.436       .  S
C2422      C2423   1.406       .  A
C2422      H2427   1.083       .  S
C2423      C2424   1.412       .  A
N2425      H2429   1.046       .  S
N2425      H2430   1.042       .  S
N2428      H2431   1.046       .  S
N2428      H2432   1.045       .  S
C2433      C3366   1.405       .  A
C2433      C2438   1.407       .  A
C2433      H2440   1.084       .  S
C2434      C3365   1.405       .  A
C2434      C2435   1.410       .  A
C2435      C2436   1.402   1_545  A
C2435      N2442   1.432       .  S
C2436      C3369   1.400       .  A
C2436      H2441   1.084       .  S
C2437      C3368   1.402       .  A
C2437      C2438   1.417       .  A
C2438      N2439   1.438       .  S
N2439      H2443   1.046       .  S
N2439      H2444   1.043       .  S
N2442      H2445   1.046       .  S
N2442      H2446   1.045   1_545  S
C2447      C2448   1.404       .  A
C2447      C2452   1.412       .  A
C2447      H2454   1.083       .  S
C2448      C2449   1.407       .  A
C2449      C2450   1.396       .  A
C2449      N2456   1.431       .  S
C2450      C2451   1.397       .  A
C2450      H2455   1.084       .  S
C2451      C2452   1.412       .  A
C2452      N2453   1.437       .  S
N2453      H2457   1.046       .  S
N2453      H2458   1.045       .  S
N2456      H2459   1.045       .  S
N2456      H2460   1.045       .  S
C2461      C2462   1.400       .  A
C2461      C2466   1.400       .  A
C2461      H2468   1.084       .  S
C2462      C2463   1.413       .  A
C2463      C2464   1.398       .  A
C2463      N2470   1.433       .  S
C2464      C2465   1.400       .  A
C2464      H2469   1.084       .  S
C2465      C2466   1.416       .  A
C2466      N2467   1.439       .  S
N2467      H2471   1.046       .  S
N2467      H2472   1.043       .  S
N2470      H2473   1.046       .  S
N2470      H2474   1.044       .  S
C2475      C2476   1.406       .  A
C2475      C2480   1.412       .  A
C2475      H2482   1.084       .  S
C2476      C2477   1.407       .  A
C2477      C2478   1.403       .  A
C2477      N2484   1.431       .  S
C2478      C2479   1.402       .  A
C2478      H2483   1.084       .  S
C2479      C2480   1.411       .  A
C2480      N2481   1.437       .  S
N2481      H2485   1.045       .  S
N2481      H2486   1.046       .  S
N2484      H2487   1.041       .  S
N2484      H2488   1.046       .  S
C2489      C2490   1.406       .  A
C2489      C2494   1.407       .  A
C2489      H2496   1.084       .  S
C2490      C2491   1.414       .  A
C2491      C2492   1.401       .  A
C2491      N2498   1.439       .  S
C2492      C2493   1.406       .  A
C2492      H2497   1.084       .  S
C2493      C2494   1.414       .  A
C2494      N2495   1.432       .  S
N2495      H2499   1.044       .  S
N2495      H2500   1.045       .  S
N2498      H2501   1.044       .  S
N2498      H2502   1.045       .  S
C2503      C2504   1.406       .  A
C2503      C2508   1.394       .  A
C2503      H2510   1.084       .  S
C2504      C2505   1.414       .  A
C2505      C2506   1.410       .  A
C2505      N2512   1.431       .  S
C2506      C2507   1.408       .  A
C2506      H2511   1.083       .  S
C2507      C2508   1.409       .  A
C2508      N2509   1.433       .  S
N2509      H2513   1.045       .  S
N2509      H2514   1.045       .  S
N2512      H2515   1.045       .  S
N2512      H2516   1.045       .  S
C2517      C2518   1.404       .  A
C2517      C2522   1.407       .  A
C2517      H2524   1.084       .  S
C2518      C2519   1.415       .  A
C2519      C2520   1.396       .  A
C2519      N2526   1.439       .  S
C2520      C2521   1.403       .  A
C2520      H2525   1.082       .  S
C2521      C2522   1.409       .  A
C2522      N2523   1.432       .  S
N2523      H2527   1.046       .  S
N2523      H2528   1.046       .  S
N2526      H2529   1.043       .  S
N2526      H2530   1.046       .  S
C2531      C2532   1.403       .  A
C2531      C2536   1.411       .  A
C2531      H2538   1.083       .  S
C2532      C2533   1.408       .  A
C2533      C2534   1.396       .  A
C2533      N2540   1.432       .  S
C2534      C2535   1.405       .  A
C2534      H2539   1.084       .  S
C2535      C2536   1.412       .  A
C2536      N2537   1.437       .  S
N2537      H2541   1.045       .  S
N2537      H2542   1.046       .  S
N2540      H2543   1.045       .  S
N2540      H2544   1.046       .  S
C2545      C2546   1.401       .  A
C2545      C2550   1.402       .  A
C2545      H2552   1.084       .  S
C2546      C2547   1.415       .  A
C2547      C2548   1.410       .  A
C2547      N2554   1.431   1_545  S
C2548      C2549   1.405       .  A
C2548      H2553   1.083       .  S
C2549      C2550   1.409       .  A
C2550      N2551   1.432       .  S
N2551      H2555   1.046       .  S
N2551      H2556   1.045       .  S
N2554      H3489   1.045       .  S
N2554      H3490   1.046       .  S
H2557      N3486   1.044       .  S
H2558      N3486   1.046       .  S
C2559      C2560   1.407       .  A
C2559      C2564   1.415       .  A
C2559      H2566   1.083   1_545  S
C2560      C2561   1.404       .  A
C2561      C2562   1.400       .  A
C2561      N2568   1.432       .  S
C2562      C2563   1.405       .  A
C2562      H2567   1.084       .  S
C2563      C2564   1.411       .  A
C2564      N2565   1.436   1_545  S
N2565      H2569   1.046       .  S
N2565      H2570   1.045       .  S
N2568      H2571   1.044       .  S
N2568      H2572   1.046       .  S
C2573      C2574   1.399       .  A
C2573      C3510   1.393       .  A
C2573      H2580   1.084       .  S
C2574      C2575   1.414       .  A
C2575      C3508   1.402       .  A
C2575      N2582   1.433       .  S
C2576      C3507   1.401       .  A
C2576      C2577   1.404   1_565  A
C2576      H2581   1.084       .  S
C2577      C2578   1.420       .  A
C2578      C3505   1.391   1_545  A
C2578      N2579   1.433       .  S
N2579      H2583   1.044       .  S
N2579      H2584   1.044       .  S
N2582      H2585   1.046       .  S
N2582      H2586   1.043       .  S
C2587      C2588   1.403       .  A
C2587      C2592   1.402       .  A
C2587      H2594   1.083       .  S
C2588      C2589   1.411       .  A
C2589      C2590   1.407       .  A
C2589      N2596   1.438       .  S
C2590      C2591   1.403       .  A
C2590      H2595   1.084       .  S
C2591      C2592   1.410       .  A
C2592      N2593   1.438       .  S
N2593      H2597   1.046       .  S
N2593      H2598   1.046       .  S
N2596      H2599   1.046       .  S
N2596      H2600   1.045       .  S
C2601      C3534   1.401       .  A
C2601      C2606   1.405       .  A
C2601      H2608   1.084       .  S
C2602      C3533   1.400       .  A
C2602      C2603   1.412   1_545  A
C2603      C3536   1.405       .  A
C2603      N2610   1.438       .  S
C2604      C3535   1.405       .  A
C2604      C2605   1.404       .  A
C2604      H2609   1.084       .  S
C2605      C2606   1.421       .  A
C2606      N2607   1.439       .  S
N2607      H2611   1.046       .  S
N2607      H2612   1.042       .  S
N2610      H2613   1.044   1_565  S
N2610      H2614   1.046       .  S
C2615      C2616   1.403       .  A
C2615      C2620   1.405       .  A
C2615      H2622   1.084       .  S
C2616      C2617   1.412       .  A
C2617      C2618   1.408       .  A
C2617      N2624   1.437       .  S
C2618      C2619   1.401       .  A
C2618      H2623   1.084       .  S
C2619      C2620   1.413       .  A
C2620      N2621   1.432       .  S
N2621      H2625   1.046       .  S
N2621      H2626   1.045       .  S
N2624      H2627   1.045       .  S
N2624      H2628   1.045       .  S
C2629      C2630   1.404       .  A
C2629      C3566   1.398       .  A
C2629      H2636   1.084       .  S
C2630      C2631   1.416       .  A
C2631      C3564   1.404       .  A
C2631      N2638   1.439       .  S
C2632      C3563   1.404   1_545  A
C2632      C2633   1.403       .  A
C2632      H2637   1.084       .  S
C2633      C2634   1.412       .  A
C2634      C3561   1.399   1_545  A
C2634      N2635   1.433       .  S
N2635      H2639   1.045       .  S
N2635      H2640   1.045       .  S
N2638      H2641   1.044       .  S
N2638      H2642   1.045       .  S
C2643      C2644   1.404       .  A
C2643      C2648   1.405       .  A
C2643      H2650   1.084       .  S
C2644      C2645   1.408       .  A
C2645      C2646   1.408       .  A
C2645      N2652   1.437       .  S
C2646      C2647   1.406       .  A
C2646      H2651   1.084       .  S
C2647      C2648   1.411       .  A
C2648      N2649   1.438       .  S
N2649      H2653   1.046       .  S
N2649      H2654   1.045       .  S
N2652      H2655   1.046       .  S
N2652      H2656   1.046       .  S
C2657      C2658   1.405       .  A
C2657      C3594   1.398       .  A
C2657      H2664   1.084       .  S
C2658      C3591   1.410       .  A
C2659      C3590   1.410   1_545  A
C2659      C2660   1.408       .  A
C2659      N2666   1.437       .  S
C2660      C2661   1.404       .  A
C2660      H2665   1.084       .  S
C2661      C2662   1.412       .  A
C2662      C3589   1.396   1_545  A
C2662      N2663   1.433       .  S
N2663      H3599   1.044       .  S
N2663      H2668   1.046       .  S
N2666      H3601   1.046   1_545  S
N2666      H2670   1.046       .  S
H2667      N3595   1.044       .  S
H2669      N3598   1.045       .  S
C2671      C2672   1.403       .  A
C2671      C2676   1.400       .  A
C2671      H2678   1.084       .  S
C2672      C2673   1.404       .  A
C2673      C2674   1.404       .  A
C2673      N2680   1.432       .  S
C2674      C2675   1.404       .  A
C2674      H2679   1.084       .  S
C2675      C2676   1.416       .  A
C2676      N2677   1.439       .  S
N2677      H2681   1.045       .  S
N2677      H2682   1.043       .  S
N2680      H2683   1.046       .  S
N2680      H2684   1.045       .  S
C2685      C2686   1.404       .  A
C2685      C2690   1.407       .  A
C2685      H2692   1.084       .  S
C2686      C2687   1.406       .  A
C2687      C2688   1.392       .  A
C2687      N2694   1.433       .  S
C2688      C2689   1.411       .  A
C2688      H2693   1.083       .  S
C2689      C2690   1.420       .  A
C2690      N2691   1.429       .  S
N2691      H2695   1.046       .  S
N2691      H2696   1.044       .  S
N2694      H2697   1.045       .  S
N2694      H2698   1.045       .  S
C2699      C2700   1.404       .  A
C2699      C2704   1.392       .  A
C2699      H2706   1.084       .  S
C2700      C2701   1.411       .  A
C2701      C2702   1.405       .  A
C2701      N2708   1.437       .  S
C2702      C2703   1.401       .  A
C2702      H2707   1.084       .  S
C2703      C2704   1.408       .  A
C2704      N2705   1.433       .  S
N2705      H2709   1.045       .  S
N2705      H2710   1.045       .  S
N2708      H2711   1.046       .  S
N2708      H2712   1.046       .  S
C2713      C2714   1.399       .  A
C2713      C2718   1.393       .  A
C2713      H2720   1.084       .  S
C2714      C2715   1.411       .  A
C2715      C2716   1.407       .  A
C2715      N2722   1.438       .  S
C2716      C2717   1.404       .  A
C2716      H2721   1.084       .  S
C2717      C2718   1.413       .  A
C2718      N2719   1.431       .  S
N2719      H2723   1.044       .  S
N2719      H2724   1.045       .  S
N2722      H2725   1.045       .  S
N2722      H2726   1.045       .  S
C2727      C2728   1.400       .  A
C2727      C2732   1.397       .  A
C2727      H2734   1.085       .  S
C2728      C2729   1.416       .  A
C2729      C2730   1.404       .  A
C2729      N2736   1.438       .  S
C2730      C2731   1.406       .  A
C2730      H2735   1.082       .  S
C2731      C2732   1.414       .  A
C2732      N2733   1.433       .  S
N2733      H2737   1.046       .  S
N2733      H2738   1.046       .  S
N2736      H2739   1.042       .  S
N2736      H2740   1.046       .  S
C2741      C2742   1.401       .  A
C2741      C2746   1.399       .  A
C2741      H2748   1.084       .  S
C2742      C2743   1.421   1_545  A
C2743      C2744   1.409       .  A
C2743      N2750   1.438       .  S
C2744      C2745   1.404   1_565  A
C2744      H2749   1.084       .  S
C2745      C2746   1.410       .  A
C2746      N2747   1.437       .  S
N2747      H2751   1.046       .  S
N2747      H2752   1.045       .  S
N2750      H2753   1.043       .  S
N2750      H2754   1.046       .  S
C2755      C2756   1.402   1_565  A
C2755      C2760   1.405       .  A
C2755      H2762   1.084       .  S
C2756      C2757   1.408       .  A
C2757      C2758   1.392       .  A
C2757      N2764   1.434       .  S
C2758      C2759   1.407       .  A
C2758      H2763   1.082       .  S
C2759      C2760   1.419   1_545  A
C2760      N2761   1.431       .  S
N2761      H2765   1.046       .  S
N2761      H2766   1.045       .  S
N2764      H2767   1.045       .  S
N2764      H2768   1.045       .  S
C2769      C2770   1.404       .  A
C2769      C2774   1.397       .  A
C2769      H2776   1.084       .  S
C2770      C2771   1.415       .  A
C2771      C2772   1.408       .  A
C2771      N2778   1.438       .  S
C2772      C2773   1.401       .  A
C2772      H2777   1.084       .  S
C2773      C2774   1.408       .  A
C2774      N2775   1.432       .  S
N2775      H2779   1.043       .  S
N2775      H2780   1.045       .  S
N2778      H2781   1.045       .  S
N2778      H3714   1.046       .  S
H2782      N3710   1.045       .  S
C2783      C2784   1.405       .  A
C2783      C2788   1.396       .  A
C2783      H2790   1.084       .  S
C2784      C2785   1.412       .  A
C2785      C2786   1.404       .  A
C2785      N2792   1.432       .  S
C2786      C2787   1.405       .  A
C2786      H2791   1.084       .  S
C2787      C2788   1.410       .  A
C2788      N2789   1.433       .  S
N2789      H2793   1.045       .  S
N2789      H2794   1.046       .  S
N2792      H2795   1.047       .  S
N2792      H2796   1.044       .  S
N2797      H2829   1.040       .  S
N2797      C2801   1.353       .  A
N2798      C2806   1.351       .  A
N2799      H2830   1.044       .  S
N2799      C2804   1.350       .  A
N2800      C2808   1.348       .  A
C2801      C2809   1.389       .  A
C2801      C2817   1.417       .  A
C2802      C2818   1.414       .  A
C2802      C2810   1.386       .  A
C2803      C2811   1.386       .  A
C2803      C2820   1.423       .  A
C2804      C2819   1.410       .  A
C2804      C2812   1.386       .  A
C2805      C2817   1.408       .  A
C2805      C2813   1.385       .  A
C2806      C2820   1.414   1_545  A
C2806      C2814   1.387       .  A
C2807      C2815   1.385       .  A
C2807      C2818   1.412       .  A
C2808      C2816   1.386       .  A
C2808      C2819   1.406       .  A
C2809      H2821   1.082       .  S
C2810      H2822   1.082       .  S
C2811      H2823   1.082       .  S
C2812      H2824   1.083       .  S
C2813      H2825   1.082       .  S
C2814      H2826   1.082       .  S
C2815      H2827   1.082       .  S
C2816      H2828   1.082       .  S
C2817      C3719   1.483       .  S
C2818      C3688   1.484       .  S
C2819      C3674   1.479       .  S
C2820      C3702   1.493       .  S
N2831      H2863   1.035       .  S
N2831      C2836   1.353       .  A
N2831      C2835   1.355       .  A
N2832      C2840   1.346       .  A
N2833      H2864   1.037       .  S
N2833      C2838   1.351       .  A
N2833      C2837   1.353       .  A
N2834      C2842   1.351       .  A
C2835      C2843   1.388       .  A
C2835      C2851   1.419       .  A
C2836      C2852   1.417       .  A
C2836      C2844   1.387       .  A
C2837      C2845   1.387       .  A
C2837      C2854   1.413       .  A
C2838      C2853   1.411       .  A
C2838      C2846   1.386       .  A
C2839      C2851   1.411       .  A
C2839      C2847   1.386       .  A
C2840      C2854   1.405       .  A
C2840      C2848   1.386       .  A
C2841      C2849   1.387       .  A
C2841      C2852   1.414       .  A
C2842      C2850   1.385       .  A
C2842      C2853   1.411       .  A
C2843      C2844   1.376       .  A
C2843      H2855   1.082       .  S
C2844      H2856   1.083       .  S
C2845      C2846   1.374       .  A
C2845      H2857   1.082       .  S
C2846      H2858   1.082       .  S
C2847      H2859   1.082       .  S
C2848      H2860   1.082       .  S
C2849      H2861   1.082       .  S
C2850      H2862   1.082       .  S
C2851      C3618   1.486       .  S
C2852      C3646   1.490       .  S
C2853      C3660   1.484       .  S
C2854      C3635   1.477       .  S
C2865      N2883   1.355       .  A
C2865      C2902   1.449       .  S
C2865      C3716   1.474       .  S
N2866      N2883   1.330       .  A
N2866      N2888   1.318       .  A
N2866     Co2903   2.096       .  S
C2867      N2892   1.349       .  A
C2867      H2912   1.081       .  S
C2867      C2905   1.473       .  S
H2868      C2909   1.081       .  S
C2869      N2893   1.338       .  A
C2869      H2898   1.082       .  S
C2869      C2873   1.463       .  S
Co2870     N2888   2.064       .  S
Co2870     N2878   2.074       .  S
Co2870     N2910   2.070       .  S
Co2870     N2886   2.066       .  S
Co2870    Cl2914   2.435       .  S
N2871      C2909   1.347       .  A
N2871      N2878   1.318       .  A
N2871     Co2872   2.097       .  S
Co2872     N2875   2.087       .  S
Co2872     N2892   2.099       .  S
Co2872     N2879   2.076       .  S
Co2872    Cl2914   2.464       .  S
C2873      N2911   1.353       .  A
C2873      C3604   1.479       .  S
N2874      N2881   1.319       .  A
N2874      N2904   1.323       .  A
N2874     Co2907   2.084       .  S
N2875      N2893   1.320       .  A
N2875      N2911   1.324       .  A
N2876      C2905   1.344       .  A
N2876      N2886   1.317       .  A
H2877      C2902   1.080       .  S
N2878      N2899   1.320       .  A
N2879      N2897   1.320       .  A
N2879      N2884   1.322       .  A
C2880      N2884   1.349       .  A
C2880      C2908   1.463       .  S
C2880      C3576   1.470       .  S
N2881      C2896   1.340       .  A
N2881     Co2903   2.086       .  S
C2882      N2910   1.334       .  A
C2882      H2916   1.080       .  S
C2882      C2885   1.451       .  S
C2885      N2906   1.354       .  A
C2885      C3705   1.476       .  S
N2886      N2892   1.317       .  A
N2887      C2913   1.339       .  A
N2887      N2889   1.320       .  A
N2887     Co2903   2.086       .  S
N2888      C2902   1.332       .  A
N2889      N2917   1.325       .  A
N2889     Co2907   2.089       .  S
H2890      C2913   1.082       .  S
H2891      C2908   1.082       .  S
N2893     Co2907   2.083       .  S
N2894      N2906   1.330       .  A
N2894      N2910   1.319       .  A
N2894     Co2903   2.098       .  S
C2895      N2899   1.346       .  A
C2895      C2909   1.471       .  S
C2895      C3663   1.489       .  S
C2896      H2900   1.082       .  S
C2896      C2915   1.463       .  S
N2897      C2908   1.341       .  A
N2897     Co2907   2.093       .  S
C2901      N2917   1.353       .  A
C2901      C2913   1.460       .  S
C2901      C3562   1.475       .  S
Co2903    Cl2914   2.458       .  S
N2904      C2915   1.352       .  A
C2905      C3649   1.492       .  S
Co2907    Cl2914   2.438       .  S
C2915      C3590   1.476       .  S
C2918      N2936   1.357       .  A
C2918      C2955   1.457       .  S
C2918      C3691   1.489       .  S
N2919      N2936   1.329       .  A
N2919      N2941   1.318       .  A
N2919     Co2956   2.101       .  S
C2920      N2945   1.348       .  A
C2920      H2965   1.081       .  S
C2920      C2958   1.468       .  S
H2921      C2962   1.081       .  S
C2922      N2946   1.340       .  A
C2922      H2951   1.082       .  S
C2922      C2926   1.464       .  S
Co2923     N2941   2.064       .  S
Co2923     N2931   2.055       .  S
Co2923     N2963   2.046       .  S
Co2923     N2939   2.071       .  S
Co2923    Cl2967   2.426       .  S
N2924      C2962   1.345       .  A
N2924      N2931   1.317       .  A
N2924     Co2925   2.086       .  S
Co2925     N2928   2.087       .  S
Co2925     N2945   2.097       .  S
Co2925     N2932   2.078       .  S
Co2925    Cl2967   2.465       .  S
C2926      N2964   1.352       .  A
C2926      C3548   1.472       .  S
N2927      N2934   1.319       .  A
N2927      N2957   1.326       .  A
N2927     Co2960   2.097       .  S
N2928      N2946   1.319       .  A
N2928      N2964   1.323       .  A
N2929      C2958   1.343       .  A
N2929      N2939   1.320       .  A
H2930      C2955   1.080       .  S
N2931      N2952   1.318       .  A
N2932      N2950   1.319       .  A
N2932      N2937   1.323       .  A
C2933      N2937   1.351       .  A
C2933      C2961   1.468       .  S
C2933      C3520   1.483       .  S
N2934      C2949   1.340       .  A
N2934     Co2956   2.081       .  S
C2935      N2963   1.325       .  A
C2935      H2969   1.075       .  S
C2935      C2938   1.453       .  S
C2938      N2959   1.360       .  A
C2938      C3677   1.487       .  S
N2939      N2945   1.319       .  A
N2940      C2966   1.343       .  A
N2940      N2942   1.320       .  A
N2940     Co2956   2.090       .  S
N2941      C2955   1.332       .  A
N2942      N2970   1.320       .  A
N2942     Co2960   2.082       .  S
H2943      C2966   1.082       .  S
H2944      C2961   1.082       .  S
N2946     Co2960   2.088       .  S
N2947      N2959   1.330       .  A
N2947      N2963   1.315       .  A
N2947     Co2956   2.102       .  S
C2948      N2952   1.342       .  A
C2948      C2962   1.463       .  S
C2948      C3632   1.466       .  S
C2949      H2953   1.082       .  S
C2949      C2968   1.462       .  S
N2950      C2961   1.341       .  A
N2950     Co2960   2.092       .  S
C2954      N2970   1.348       .  A
C2954      C2966   1.467       .  S
C2954      C3509   1.482       .  S
Co2956    Cl2967   2.468       .  S
N2957      C2968   1.353       .  A
C2958      C3621   1.475       .  S
Co2960    Cl2967   2.430       .  S
C2968      C3534   1.477       .  S
N2971      H3003   1.042       .  S
N2971      C2975   1.355   1_545  A
N2972      C2979   1.347       .  A
N2972      C2980   1.347       .  A
N2973      H3004   1.042       .  S
N2973      C2977   1.353   1_545  A
N2974      C2981   1.357       .  A
N2974      C2982   1.357       .  A
C2975      C2983   1.386       .  A
C2975      C2991   1.416       .  A
C2976      C2992   1.417       .  A
C2977      C2985   1.388       .  A
C2977      C2994   1.416       .  A
C2978      C2993   1.416       .  A
C2978      C2986   1.386       .  A
C2979      C2991   1.407       .  A
C2979      C2987   1.386       .  A
C2980      C2994   1.407       .  A
C2980      C2988   1.386       .  A
C2981      C2989   1.386       .  A
C2981      C2992   1.424       .  A
C2982      C2990   1.386       .  A
C2982      C2993   1.424       .  A
C2983      C2984   1.371   1_554  A
C2983      H2995   1.082       .  S
C2985      H2997   1.082       .  S
C2986      H2998   1.082       .  S
C2987      C2988   1.372       .  A
C2987      H2999   1.082       .  S
C2988      H3000   1.082       .  S
C2989      C2990   1.380       .  A
C2989      H3001   1.082       .  S
C2990      H3002   1.082       .  S
C2991      C3464   1.483       .  S
C2992      C3492   1.499       .  S
C2993      C3478   1.499       .  S
C2994      C3450   1.479       .  S
N3005      H3037   1.037       .  S
N3005      C3010   1.352   1_554  A
N3005      C3009   1.353       .  A
N3006      C3013   1.347       .  A
N3006      C3014   1.347       .  A
N3007      H3038   1.037       .  S
N3007      C3012   1.352   1_554  A
N3007      C3011   1.354       .  A
N3008      C3015   1.356       .  A
N3008      C3016   1.355       .  A
C3009      C3017   1.388       .  A
C3009      C3025   1.415       .  A
C3010      C3026   1.412       .  A
C3010      C3018   1.386       .  A
C3011      C3019   1.387       .  A
C3011      C3028   1.415       .  A
C3012      C3027   1.412       .  A
C3012      C3020   1.387       .  A
C3013      C3025   1.407       .  A
C3013      C3021   1.386       .  A
C3014      C3028   1.406       .  A
C3014      C3022   1.386       .  A
C3015      C3023   1.386       .  A
C3015      C3026   1.421       .  A
C3016      C3024   1.386       .  A
C3016      C3027   1.421       .  A
C3017      C3018   1.374   1_554  A
C3017      H3029   1.082       .  S
C3018      H3030   1.083       .  S
C3019      C3020   1.373   1_554  A
C3019      H3031   1.082       .  S
C3020      H3032   1.082       .  S
C3021      C3022   1.374       .  A
C3021      H3033   1.082       .  S
C3022      H3034   1.082       .  S
C3023      C3024   1.382       .  A
C3023      H3035   1.082       .  S
C3024      H3036   1.082       .  S
C3025      C3394   1.482       .  S
C3026      C3425   1.496       .  S
C3027      C3439   1.492       .  S
C3028      C3408   1.482       .  S
C3039      N3057   1.339       .  A
C3039      C3076   1.483       .  S
C3039      C3495   1.489       .  S
N3040      N3057   1.317       .  A
N3040      N3062   1.321       .  A
N3040     Co3077   2.064       .  S
C3041      N3066   1.354       .  A
C3041      H3086   1.080       .  S
C3041      C3079   1.482       .  S
H3042      C3083   1.082       .  S
C3043      N3067   1.352       .  A
C3043      H3072   1.081       .  S
C3043      C3047   1.471       .  S
Co3044     N3062   2.125   1_455  S
Co3044     N3084   2.089   1_455  S
Co3044    Cl3088   2.472   1_455  S
N3045      C3083   1.332       .  A
N3045      N3052   1.323       .  A
N3045     Co3046   2.077       .  S
Co3046     N3049   2.077       .  S
Co3046     N3066   2.113       .  S
Co3046     N3053   2.113       .  S
C3047      N3085   1.340       .  A
C3047      C3422   1.477       .  S
N3048      N3055   1.320       .  A
N3048      N3078   1.336       .  A
N3048     Co3081   2.123       .  S
N3049      N3067   1.323       .  A
N3049      N3085   1.319       .  A
N3050      C3079   1.341       .  A
N3050      N3060   1.316       .  A
H3051      C3076   1.081       .  S
N3052      N3073   1.337       .  A
N3053      N3071   1.319       .  A
N3053      N3058   1.334       .  A
C3054      N3058   1.363       .  A
C3054      C3082   1.451       .  S
C3054      C3352   1.494       .  S
N3055      C3070   1.328       .  A
N3055     Co3077   2.059       .  S
C3056      N3084   1.339       .  A
C3056      H3090   1.082       .  S
C3056      C3059   1.455       .  S
C3059      N3080   1.355       .  A
C3059      C3366   1.480       .  S
N3060      N3066   1.320       .  A
N3061      C3087   1.348       .  A
N3061      N3063   1.320       .  A
N3061     Co3077   2.098       .  S
N3062      C3076   1.357       .  A
N3063      N3091   1.322       .  A
N3063     Co3081   2.081       .  S
H3064      C3087   1.081       .  S
H3065      C3082   1.081       .  S
N3068      N3080   1.329       .  A
N3068      N3084   1.320       .  A
N3068     Co3077   2.093       .  S
C3069      N3073   1.364       .  A
C3069      C3083   1.446       .  S
C3069      C3481   1.492       .  S
C3070      H3074   1.082       .  S
C3070      C3089   1.442       .  S
N3071      C3082   1.328       .  A
C3075      N3091   1.345       .  A
C3075      C3087   1.468       .  S
C3075      C3380   1.477       .  S
Co3077    Cl3088   2.437       .  S
N3078      C3089   1.364       .  A
C3079      C3338   1.492       .  S
Co3081    Cl3088   2.471       .  S
C3089      C3436   1.487       .  S
N3092      H3124   1.038       .  S
N3092      C3097   1.353       .  A
N3092      C3096   1.356       .  A
N3093      C3100   1.352       .  A
N3093      C3101   1.350       .  A
N3094      H3125   1.042       .  S
N3094      C3099   1.354       .  A
N3094      C3098   1.351       .  A
N3095      C3102   1.351       .  A
N3095      C3103   1.352       .  A
C3096      C3104   1.388       .  A
C3096      C3112   1.424       .  A
C3097      C3113   1.420       .  A
C3097      C3105   1.387       .  A
C3098      C3106   1.388       .  A
C3098      C3115   1.414       .  A
C3099      C3114   1.413       .  A
C3099      C3107   1.386       .  A
C3100      C3112   1.415       .  A
C3100      C3108   1.387       .  A
C3101      C3115   1.412       .  A
C3101      C3109   1.386       .  A
C3102      C3110   1.388       .  A
C3102      C3113   1.413       .  A
C3103      C3111   1.384       .  A
C3103      C3114   1.410       .  A
C3104      C3105   1.382       .  A
C3104      H3116   1.082       .  S
C3105      H3117   1.082       .  S
C3106      C3107   1.377       .  A
C3106      H3118   1.082       .  S
C3107      H3119   1.082       .  S
C3108      C3109   1.374       .  A
C3110      C3111   1.370       .  A
C3110      H3122   1.082       .  S
C3111      H3123   1.082       .  S
C3112      C3341   1.500       .  S
C3113      C3355   1.489       .  S
C3114      C3523   1.496       .  S
C3115      C3506   1.484       .  S
N3126      H3158   1.037       .  S
N3126      C3131   1.352       .  A
N3126      C3130   1.353       .  A
N3127      C3134   1.352       .  A
N3127      C3135   1.352       .  A
N3128      H3159   1.036       .  S
N3128      C3133   1.354       .  A
N3128      C3132   1.355       .  A
N3129      C3136   1.355       .  A
N3129      C3137   1.355       .  A
C3130      C3138   1.387       .  A
C3130      C3146   1.415       .  A
C3131      C3147   1.415       .  A
C3131      C3139   1.387       .  A
C3132      C3140   1.387       .  A
C3132      C3149   1.419       .  A
C3133      C3148   1.417       .  A
C3133      C3141   1.387       .  A
C3134      C3146   1.413       .  A
C3134      C3142   1.386       .  A
C3135      C3149   1.416       .  A
C3135      C3143   1.387       .  A
C3136      C3144   1.386       .  A
C3136      C3147   1.419       .  A
C3137      C3145   1.387       .  A
C3137      C3148   1.420       .  A
C3138      C3139   1.376       .  A
C3138      H3150   1.082       .  S
C3139      H3151   1.082       .  S
C3140      C3141   1.376       .  A
C3142      C3143   1.372       .  A
C3142      H3154   1.082       .  S
C3143      H3155   1.082       .  S
C3144      C3145   1.376       .  A
C3144      H3156   1.082       .  S
C3145      H3157   1.082       .  S
C3146      C3551   1.486       .  S
C3147      C3383   1.491       .  S
C3148      C3369   1.492       .  S
C3149      C3537   1.494       .  S
N3160      H3192   1.038       .  S
N3160      C3165   1.353       .  A
N3160      C3164   1.353       .  A
N3161      C3168   1.350       .  A
N3161      C3169   1.350       .  A
N3162      H3193   1.038       .  S
N3162      C3167   1.354       .  A
N3162      C3166   1.355       .  A
N3163      C3170   1.354       .  A
N3163      C3171   1.353       .  A
C3164      C3172   1.386       .  A
C3164      C3180   1.414       .  A
C3165      C3181   1.415       .  A
C3165      C3173   1.388       .  A
C3166      C3174   1.387       .  A
C3166      C3183   1.418       .  A
C3167      C3182   1.418       .  A
C3167      C3175   1.387       .  A
C3168      C3180   1.411       .  A
C3168      C3176   1.386       .  A
C3169      C3183   1.411       .  A
C3169      C3177   1.386       .  A
C3170      C3178   1.386       .  A
C3170      C3181   1.416       .  A
C3171      C3179   1.387       .  A
C3171      C3182   1.417       .  A
C3172      C3173   1.374       .  A
C3172      H3184   1.082       .  S
C3173      H3185   1.082       .  S
C3174      C3175   1.378       .  A
C3174      H3186   1.082       .  S
C3175      H3187   1.082       .  S
C3176      C3177   1.373       .  A
C3176      H3188   1.082       .  S
C3177      H3189   1.082       .  S
C3178      C3179   1.372       .  A
C3180      C3579   1.487       .  S
C3181      C3565   1.489       .  S
C3182      C3310   1.494       .  S
C3183      C3327   1.490       .  S
N3194      H3226   1.038       .  S
N3194      C3199   1.353       .  A
N3194      C3198   1.354       .  A
N3195      C3202   1.351       .  A
N3195      C3203   1.351       .  A
N3196      H3227   1.040       .  S
N3196      C3201   1.353       .  A
N3196      C3200   1.352       .  A
N3197      C3204   1.351       .  A
N3197      C3205   1.352       .  A
C3198      C3206   1.387       .  A
C3198      C3214   1.416       .  A
C3199      C3215   1.415       .  A
C3199      C3207   1.387       .  A
C3200      C3208   1.387       .  A
C3200      C3217   1.413       .  A
C3201      C3216   1.412       .  A
C3201      C3209   1.386       .  A
C3202      C3214   1.412       .  A
C3202      C3210   1.387       .  A
C3203      C3217   1.412       .  A
C3203      C3211   1.386       .  A
C3204      C3212   1.387       .  A
C3204      C3215   1.414       .  A
C3205      C3213   1.386       .  A
C3205      C3216   1.414       .  A
C3206      C3207   1.377       .  A
C3208      C3209   1.374       .  A
C3208      H3220   1.082       .  S
C3209      H3221   1.082       .  S
C3210      C3211   1.373       .  A
C3210      H3222   1.082       .  S
C3211      H3223   1.082       .  S
C3212      C3213   1.374       .  A
C3212      H3224   1.082       .  S
C3213      H3225   1.082       .  S
C3214      C3593   1.489       .  S
C3215      C3282   1.487       .  S
C3216      C3296   1.491       .  S
C3217      C3607   1.487       .  S
C3228      N3246   1.355       .  A
C3228      C3265   1.450       .  S
C3228      C3467   1.475       .  S
N3229      N3246   1.329       .  A
N3229      N3251   1.320       .  A
N3229     Co3266   2.101       .  S
C3230      H3275   1.081       .  S
C3230      C3268   1.457       .  S
H3231      C3272   1.081       .  S
C3232      N3256   1.342       .  A
C3232      H3261   1.082       .  S
C3232      C3236   1.464       .  S
Co3233     N3251   2.064       .  S
Co3233     N3241   2.064       .  S
Co3233     N3273   2.058   1_655  S
Co3233     N3249   2.073   1_655  S
Co3233    Cl3277   2.437       .  S
N3234      C3272   1.345       .  A
N3234      N3241   1.318       .  A
N3234     Co3235   2.089       .  S
Co3235     N3238   2.080       .  S
Co3235     N3255   2.087   1_655  S
Co3235    Cl3277   2.458       .  S
C3236      N3274   1.349       .  A
C3236      C3299   1.473       .  S
N3237      N3244   1.320       .  A
N3237      N3267   1.324       .  A
N3237     Co3270   2.090       .  S
N3238      N3256   1.321       .  A
N3238      N3274   1.321       .  A
N3239      C3268   1.344       .  A
H3240      C3265   1.081       .  S
N3241      N3262   1.320       .  A
N3242      N3260   1.320       .  A
N3242      N3247   1.323       .  A
C3243      N3247   1.349       .  A
C3243      C3271   1.465       .  S
C3243      C3324   1.476       .  S
N3244      C3259   1.340       .  A
N3244     Co3266   2.080       .  S
C3245      H3279   1.081       .  S
C3245      C3248   1.450       .  S
C3248      N3269   1.354       .  A
C3248      C3453   1.474       .  S
N3249      N3255   1.319       .  A
N3250      C3276   1.339       .  A
N3250      N3252   1.321       .  A
N3251      C3265   1.333       .  A
N3252      N3280   1.324       .  A
H3253      C3276   1.082       .  S
H3254      C3271   1.082       .  S
N3256     Co3270   2.092       .  S
N3257      N3273   1.317       .  A
N3257     Co3266   2.086   1_455  S
C3258      N3262   1.344       .  A
C3258      C3272   1.463       .  S
C3258      C3411   1.469       .  S
C3259      H3263   1.082       .  S
C3259      C3278   1.460       .  S
N3260      C3271   1.342       .  A
C3264      N3280   1.352       .  A
C3264      C3276   1.461       .  S
C3264      C3313   1.480       .  S
Co3266    Cl3277   2.458       .  S
N3267      C3278   1.351       .  A
C3268      C3397   1.463       .  S
Co3270    Cl3277   2.439       .  S
C3278      C3285   1.472       .  S
C3281      C3282   1.402       .  A
C3282      C3283   1.411       .  A
C3283      C3284   1.408       .  A
C3283      N3290   1.437       .  S
C3284      H3289   1.084       .  S
C3285      C3286   1.409   1_565  A
C3286      N3287   1.432   1_545  S
N3287      H3291   1.045       .  S
N3287      H3292   1.046   1_565  S
N3290      H3293   1.046       .  S
N3290      H3294   1.045       .  S
C3295      C3296   1.406       .  A
C3295      C3300   1.406       .  A
C3295      H3302   1.084       .  S
C3296      C3297   1.418       .  A
C3297      C3298   1.401       .  A
C3297      N3304   1.439       .  S
C3298      C3299   1.404       .  A
C3298      H3303   1.084       .  S
C3299      C3300   1.405       .  A
C3300      N3301   1.437       .  S
N3301      H3305   1.046       .  S
N3301      H3306   1.045       .  S
N3304      H3307   1.043       .  S
N3304      H3308   1.046       .  S
C3309      C3310   1.404       .  A
C3309      H3316   1.084       .  S
C3310      C3311   1.410       .  A
C3311      N3318   1.437       .  S
C3312      C3313   1.405       .  A
C3312      H3317   1.083       .  S
C3313      C3314   1.413   1_565  A
C3314      N3315   1.437       .  S
N3315      H3319   1.045   1_545  S
N3315      H3320   1.046       .  S
N3318      H3321   1.045       .  S
C3323      C3324   1.404       .  A
C3323      C3328   1.400       .  A
C3323      H3330   1.084       .  S
C3324      C3325   1.407       .  A
C3325      C3326   1.404       .  A
C3325      N3332   1.432       .  S
C3326      C3327   1.402       .  A
C3326      H3331   1.084       .  S
C3327      C3328   1.415       .  A
C3328      N3329   1.433       .  S
N3329      H3334   1.045       .  S
N3332      H3335   1.045       .  S
N3332      H3336   1.046       .  S
C3337      C3338   1.410       .  A
C3337      H3344   1.083       .  S
C3338      C3339   1.417       .  A
C3339      N3346   1.430       .  S
C3340      C3341   1.409       .  A
C3340      H3345   1.084   1_565  S
C3341      C3342   1.409       .  A
N3343      H3347   1.045       .  S
N3343      H3348   1.046       .  S
N3346      H3349   1.046       .  S
N3346      H3350   1.044       .  S
C3351      C3352   1.409       .  A
C3351      C3356   1.395       .  A
C3351      H3358   1.082       .  S
C3352      C3353   1.413       .  A
C3353      C3354   1.415       .  A
C3353      N3360   1.436       .  S
C3354      C3355   1.408       .  A
C3354      H3359   1.084       .  S
C3355      C3356   1.412       .  A
N3357      H3361   1.045       .  S
N3357      H3362   1.042       .  S
N3360      H3363   1.045       .  S
N3360      H3364   1.046       .  S
C3365      C3370   1.407   1_545  A
C3365      H3372   1.084       .  S
C3366      C3367   1.417       .  A
C3367      C3368   1.402       .  A
C3367      N3374   1.439       .  S
C3368      H3373   1.084       .  S
C3369      C3370   1.414       .  A
C3370      N3371   1.432       .  S
N3371      H3375   1.046       .  S
N3371      H3376   1.045       .  S
N3374      H3377   1.043       .  S
N3374      H3378   1.046       .  S
C3379      C3380   1.404       .  A
C3379      C3384   1.411       .  A
C3379      H3386   1.084       .  S
C3380      C3381   1.411       .  A
C3381      C3382   1.405       .  A
C3381      N3388   1.438       .  S
C3382      C3383   1.401       .  A
C3382      H3387   1.084       .  S
C3383      C3384   1.411       .  A
C3384      N3385   1.437       .  S
N3385      H3389   1.046       .  S
N3385      H3390   1.045       .  S
N3388      H3391   1.044       .  S
N3388      H3392   1.046       .  S
C3393      C3394   1.401       .  A
C3393      C3398   1.398       .  A
C3393      H3400   1.084       .  S
C3394      C3395   1.412       .  A
C3395      C3396   1.398       .  A
C3395      N3402   1.433       .  S
C3396      C3397   1.401       .  A
C3396      H3401   1.084       .  S
C3397      C3398   1.415       .  A
C3398      N3399   1.439       .  S
N3399      H3403   1.046       .  S
N3399      H3404   1.043       .  S
N3402      H3405   1.045       .  S
N3402      H3406   1.045       .  S
C3407      C3408   1.402       .  A
C3407      C3412   1.407       .  A
C3407      H3414   1.084       .  S
C3408      C3409   1.407       .  A
C3409      C3410   1.401       .  A
C3409      N3416   1.438       .  S
C3410      C3411   1.402       .  A
C3410      H3415   1.084       .  S
C3411      C3412   1.409       .  A
C3412      N3413   1.437       .  S
N3413      H3417   1.045       .  S
N3413      H3418   1.045       .  S
N3416      H3419   1.046       .  S
N3416      H3420   1.044       .  S
C3421      C3422   1.406       .  A
C3421      C3426   1.408       .  A
C3421      H3428   1.084       .  S
C3422      C3423   1.415       .  A
C3423      C3424   1.401       .  A
C3423      N3430   1.439       .  S
C3424      C3425   1.404       .  A
C3424      H3429   1.084       .  S
C3425      C3426   1.414       .  A
C3426      N3427   1.432       .  S
N3427      H3431   1.044       .  S
N3427      H3432   1.046       .  S
N3430      H3433   1.044       .  S
N3430      H3434   1.046       .  S
C3435      C3436   1.406       .  A
C3435      C3440   1.395       .  A
C3435      H3442   1.084       .  S
C3436      C3437   1.415       .  A
C3437      C3438   1.411       .  A
C3437      N3444   1.431       .  S
C3438      C3439   1.409       .  A
C3438      H3443   1.083       .  S
C3439      C3440   1.410       .  A
C3440      N3441   1.433       .  S
N3441      H3445   1.045       .  S
N3441      H3446   1.045       .  S
N3444      H3447   1.045       .  S
N3444      H3448   1.045       .  S
C3449      C3450   1.402       .  A
C3449      C3454   1.404       .  A
C3449      H3456   1.084   1_565  S
C3450      C3451   1.408       .  A
C3451      C3452   1.393       .  A
C3451      N3458   1.433       .  S
C3452      C3453   1.405       .  A
C3452      H3457   1.082       .  S
C3453      C3454   1.408       .  A
C3454      N3455   1.431   1_565  S
N3455      H3459   1.046       .  S
N3455      H3460   1.045       .  S
N3458      H3461   1.046       .  S
N3458      H3462   1.045       .  S
C3463      C3464   1.403   1_545  A
C3463      C3468   1.409   1_545  A
C3463      H3470   1.083       .  S
C3464      C3465   1.409       .  A
C3465      C3466   1.392       .  A
C3465      N3472   1.433       .  S
C3466      C3467   1.404       .  A
C3466      H3471   1.084       .  S
C3467      C3468   1.411       .  A
C3468      N3469   1.437   1_565  S
N3469      H3473   1.046       .  S
N3469      H3474   1.046       .  S
N3472      H3475   1.045       .  S
N3472      H3476   1.045       .  S
C3477      C3478   1.398       .  A
C3477      C3482   1.400       .  A
C3477      H3484   1.084       .  S
C3478      C3479   1.422       .  A
C3479      C3480   1.417       .  A
C3479      N3486   1.437       .  S
C3480      C3481   1.407       .  A
C3480      H3485   1.083       .  S
C3481      C3482   1.411       .  A
C3482      N3483   1.431       .  S
N3483      H3487   1.046       .  S
N3483      H3488   1.046       .  S
C3491      C3492   1.409       .  A
C3491      C3496   1.418       .  A
C3491      H3498   1.083       .  S
C3492      C3493   1.405       .  A
C3493      C3494   1.401       .  A
C3493      N3500   1.432       .  S
C3494      C3495   1.407       .  A
C3494      H3499   1.084       .  S
C3495      C3496   1.413       .  A
C3496      N3497   1.436       .  S
N3497      H3501   1.046       .  S
N3497      H3502   1.045       .  S
N3500      H3503   1.046       .  S
N3500      H3504   1.046       .  S
C3505      C3506   1.398       .  A
C3505      H3512   1.084       .  S
C3506      C3507   1.413       .  A
C3507      N3514   1.433       .  S
C3508      C3509   1.405       .  A
C3508      H3513   1.084       .  S
C3509      C3510   1.421       .  A
C3510      N3511   1.433       .  S
N3511      H3515   1.045       .  S
N3511      H3516   1.044       .  S
N3514      H3517   1.046       .  S
N3514      H3518   1.043       .  S
C3519      C3520   1.404       .  A
C3519      C3524   1.404       .  A
C3519      H3526   1.082       .  S
C3520      C3521   1.412       .  A
C3521      C3522   1.409       .  A
C3521      N3528   1.438       .  S
C3522      C3523   1.405       .  A
C3522      H3527   1.084       .  S
C3523      C3524   1.412       .  A
C3524      N3525   1.438       .  S
N3525      H3529   1.046       .  S
N3525      H3530   1.045       .  S
N3528      H3531   1.044       .  S
N3528      H3532   1.046       .  S
C3533      C3538   1.405   1_545  A
C3533      H3540   1.084       .  S
C3534      C3535   1.411       .  A
C3535      N3542   1.438       .  S
C3536      C3537   1.404       .  A
C3536      H3541   1.084       .  S
C3537      C3538   1.420       .  A
C3538      N3539   1.439       .  S
N3539      H3543   1.046       .  S
N3539      H3544   1.043       .  S
N3542      H3545   1.044       .  S
N3542      H3546   1.046       .  S
C3547      C3548   1.401       .  A
C3547      C3552   1.402       .  A
C3547      H3554   1.084       .  S
C3548      C3549   1.408       .  A
C3549      C3550   1.402       .  A
C3549      N3556   1.431       .  S
C3550      C3551   1.401       .  A
C3550      H3555   1.084       .  S
C3551      C3552   1.413       .  A
C3552      N3553   1.432       .  S
N3553      H3557   1.045       .  S
N3553      H3558   1.046       .  S
N3556      H3559   1.045       .  S
N3556      H3560   1.044       .  S
C3561      C3562   1.404       .  A
C3561      H3568   1.084       .  S
C3562      C3563   1.416       .  A
C3563      N3570   1.439       .  S
C3564      C3565   1.404       .  A
C3564      H3569   1.084       .  S
C3565      C3566   1.411       .  A
C3566      N3567   1.433       .  S
N3567      H3571   1.045       .  S
N3567      H3572   1.044       .  S
N3570      H3573   1.043       .  S
N3570      H3574   1.046       .  S
C3575      C3576   1.404       .  A
C3575      C3580   1.405       .  A
C3575      H3582   1.084       .  S
C3576      C3577   1.406       .  A
C3577      C3578   1.405       .  A
C3577      N3584   1.437       .  S
C3578      C3579   1.404       .  A
C3578      H3583   1.084       .  S
C3579      C3580   1.410       .  A
C3580      N3581   1.438       .  S
N3581      H3585   1.046       .  S
N3581      H3586   1.045       .  S
N3584      H3587   1.046       .  S
N3584      H3588   1.046       .  S
C3589      C3590   1.404       .  A
C3589      H3596   1.084       .  S
C3591      C3592   1.408       .  A
C3591      N3598   1.437       .  S
C3592      C3593   1.404       .  A
C3592      H3597   1.084       .  S
C3593      C3594   1.412       .  A
C3594      N3595   1.433       .  S
N3595      H3600   1.046       .  S
N3598      H3602   1.046       .  S
C3603      C3604   1.407       .  A
C3603      C3608   1.399       .  A
C3603      H3610   1.084       .  S
C3604      C3605   1.416       .  A
C3605      C3606   1.402       .  A
C3605      N3612   1.439       .  S
C3606      C3607   1.403       .  A
C3606      H3611   1.084       .  S
C3607      C3608   1.416       .  A
C3608      N3609   1.440       .  S
N3609      H3613   1.046       .  S
N3609      H3614   1.043       .  S
N3612      H3615   1.043       .  S
N3612      H3616   1.046       .  S
C3617      C3618   1.404       .  A
C3617      C3622   1.402       .  A
C3617      H3624   1.084       .  S
C3618      C3619   1.410       .  A
C3619      C3620   1.398       .  A
C3619      N3626   1.433       .  S
C3620      C3621   1.405       .  A
C3620      H3625   1.084       .  S
C3621      C3622   1.412       .  A
C3622      N3623   1.432       .  S
N3623      H3627   1.045       .  S
N3623      H3628   1.045       .  S
N3626      H3629   1.045       .  S
N3626      H3630   1.045       .  S
C3631      C3632   1.403       .  A
C3631      C3636   1.392       .  A
C3631      H3638   1.084       .  S
C3632      C3633   1.409       .  A
C3633      C3634   1.406       .  A
C3633      N3640   1.437       .  S
C3634      C3635   1.402       .  A
C3634      H3639   1.084       .  S
C3635      C3636   1.409       .  A
C3636      N3637   1.433       .  S
N3637      H3641   1.045       .  S
N3637      H3642   1.045       .  S
N3640      H3643   1.045       .  S
N3640      H3644   1.046       .  S
C3645      C3646   1.395       .  A
C3645      C3650   1.390       .  A
C3645      H3652   1.085       .  S
C3646      C3647   1.411       .  A
C3647      C3648   1.414       .  A
C3647      N3654   1.437       .  S
C3648      C3649   1.410       .  A
C3648      H3653   1.083       .  S
C3649      C3650   1.423       .  A
C3650      N3651   1.432       .  S
N3651      H3655   1.045       .  S
N3651      H3656   1.044       .  S
N3654      H3657   1.045       .  S
N3654      H3658   1.046       .  S
C3659      C3660   1.398       .  A
C3659      C3664   1.400       .  A
C3659      H3666   1.084       .  S
C3660      C3661   1.410       .  A
C3661      C3662   1.403       .  A
C3661      N3668   1.432       .  S
C3662      C3663   1.407       .  A
C3662      H3667   1.082       .  S
C3663      C3664   1.418       .  A
C3664      N3665   1.433       .  S
N3665      H3669   1.045       .  S
N3665      H3670   1.046       .  S
N3668      H3671   1.046       .  S
N3668      H3672   1.045       .  S
C3673      C3674   1.394       .  A
C3673      C3678   1.389       .  A
C3673      H3680   1.085       .  S
C3674      C3675   1.411       .  A
C3675      C3676   1.404       .  A
C3675      N3682   1.432       .  S
C3676      C3677   1.409       .  A
C3676      H3681   1.083       .  S
C3677      C3678   1.419       .  A
C3678      N3679   1.430       .  S
N3679      H3683   1.046       .  S
N3679      H3684   1.046       .  S
N3682      H3685   1.045       .  S
N3682      H3686   1.044       .  S
C3687      C3688   1.403       .  A
C3687      C3692   1.405       .  A
C3687      H3694   1.084       .  S
C3688      C3689   1.407       .  A
C3689      C3690   1.392       .  A
C3689      N3696   1.434       .  S
C3690      C3691   1.408       .  A
C3690      H3695   1.081       .  S
C3691      C3692   1.419       .  A
C3692      N3693   1.431       .  S
N3693      H3697   1.046       .  S
N3693      H3698   1.045       .  S
N3696      H3699   1.045       .  S
N3696      H3700   1.046       .  S
C3701      C3702   1.401       .  A
C3701      C3706   1.396       .  A
C3701      H3708   1.084       .  S
C3702      C3703   1.412   1_565  A
C3703      C3704   1.411   1_545  A
C3703      N3710   1.436       .  S
C3704      C3705   1.404       .  A
C3704      H3709   1.084   1_565  S
C3705      C3706   1.414       .  A
C3706      N3707   1.433       .  S
N3707      H3711   1.044       .  S
N3707      H3712   1.045       .  S
N3710      H3713   1.046       .  S
C3715      C3716   1.404       .  A
C3715      C3720   1.394       .  A
C3715      H3722   1.084       .  S
C3716      C3717   1.411       .  A
C3717      C3718   1.403       .  A
C3717      N3724   1.432   1_565  S
C3718      C3719   1.404       .  A
C3718      H3723   1.084   1_565  S
C3719      C3720   1.409       .  A
C3720      N3721   1.433       .  S
N3721      H3725   1.045       .  S
N3721      H3726   1.046       .  S
N3724      H3727   1.045       .  S
N3724      H3728   1.045       .  S
