geometry optimzed in LAMMPS
_audit_creation_date              2020-12-01 
_audit_creation_method            'lammps2cif' 
_symmetry_space_group_name_H-M    'P1' 
_symmetry_Int_Tables_number       1 
_symmetry_cell_setting            triclinic 
loop_ 
_symmetry_equiv_pos_as_xyz 
  x,y,z 
_cell_length_a                    42.74884087 
_cell_length_b                    43.069804935379075 
_cell_length_c                    104.26929720366498 
_cell_angle_alpha                 90.05253773930903 
_cell_angle_beta                  90.06645607195686 
_cell_angle_gamma                 120.0704205810197 
loop_ 
_atom_site_label 
_atom_site_type_symbol 
_atom_site_fract_x 
_atom_site_fract_y 
_atom_site_fract_z 
_atom_site_charge 
Zn1        Zn  0.21997862  0.36215062  0.38378728     1.49700
Zn2        Zn  0.14683747  0.28617212  0.38431564     1.49400
Zn3        Zn  0.14352818  0.35900423  0.38794388     1.49100
Zn4        Zn  0.16367724  0.33999771  0.36151236     1.49500
O5          O  0.16845196  0.33677104  0.37967105    -1.84000
O6          O  0.23427483  0.32977747  0.39274190    -0.74600
O7          O  0.10258464  0.27087006  0.39530262    -0.74400
O8          O  0.17877061  0.40062721  0.39890803    -0.73900
O9          O  0.18227316  0.27851352  0.39464855    -0.74600
O10         O  0.23098582  0.40186028  0.39616204    -0.74200
O11         O  0.10461433  0.32263763  0.39946548    -0.74800
O12         O  0.12677053  0.35278973  0.35700030    -0.74200
O13         O  0.13398475  0.25437882  0.36857851    -0.75000
O14         O  0.11843932  0.37534683  0.37497988    -0.74300
O15         O  0.14972869  0.29422934  0.35290832    -0.74800
O16         O  0.20960791  0.37568394  0.35349902    -0.74700
O17         O  0.25111198  0.38442777  0.36807443    -0.74500
C18         C  0.21594688  0.29788890  0.39699434     0.77300
C19         C  0.09044050  0.28887032  0.40098764     0.77800
C20         C  0.21241722  0.41418071  0.40126542     0.76700
C21         C  0.11258849  0.36816239  0.36304551     0.77100
C22         C  0.13779139  0.26229649  0.35669953     0.78200
C23         C  0.24240206  0.38922710  0.35686744     0.77300
Zn24       Zn  0.49491624  0.50134573  0.28429605     1.49700
Zn25       Zn  0.44964819  0.47850878  0.25865519     1.49400
Zn26       Zn  0.02854239  0.04982569  0.26022066     1.49100
Zn27       Zn  0.02110144  0.47128870  0.26285764     1.49500
O28         O  0.49849246  0.50049002  0.26598410    -1.84000
O29         O  0.44625759  0.48906549  0.28960984    -0.74600
O30         O  0.44489549  0.01447308  0.24826512    -0.74400
O31         O  0.04907049  0.08556980  0.27486472    -0.73900
O32         O  0.41123526  0.46346988  0.27260163    -0.74600
O33         O  0.02790073  0.04939911  0.29169466    -0.74200
O34         O  0.49919534  0.06356034  0.24906772    -0.74800
O35         O  0.06878661  0.00197196  0.25317932    -0.74200
O36         O  0.44004349  0.43568753  0.24767741    -0.75000
O37         O  0.07085589  0.05423262  0.25042297    -0.74300
O38         O  0.48938109  0.43131123  0.25047083    -0.74800
O39         O  0.03073281  0.45031992  0.27913258    -0.74700
O40         O  0.00574242  0.46808316  0.29387591    -0.74500
C41         C  0.41536246  0.47265886  0.28438273     0.77300
C42         C  0.46658901  0.04699400  0.24514369     0.77800
C43         C  0.04691019  0.08036075  0.28692233     0.76700
C44         C  0.08381690  0.03364182  0.24859806     0.77100
C45         C  0.45829084  0.42016573  0.24549821     0.78200
C46         C  0.02103309  0.45052202  0.29069704     0.77300
C47         C  0.16435602  0.33688481  0.80942285     0.45600
H48         H  0.16494424  0.33858933  0.82004994    -0.03400
C49         C  0.16260998  0.33227436  0.78451779     0.45700
H50         H  0.16221958  0.32991969  0.77390793    -0.03400
C51         C  0.14211997  0.35279766  0.80297475    -0.17100
C52         C  0.20295863  0.35774081  0.80298688    -0.16900
C53         C  0.14640763  0.29726873  0.80420244    -0.17200
C54         C  0.14349117  0.35212454  0.78968870    -0.17200
C55         C  0.20098752  0.35301947  0.78983599    -0.16800
C56         C  0.14531686  0.29561909  0.79107182    -0.17100
C57         C  0.49870080  0.49896870  0.85744243     0.45600
H58         H  0.49828906  0.49570670  0.86801351    -0.03400
C59         C  0.49896613  0.50483631  0.83257112     0.45700
H60         H  0.49903083  0.50719282  0.82197066    -0.03400
C61         C  0.02338759  0.03780996  0.85297252    -0.17100
C62         C  0.01460065  0.47811878  0.85121119    -0.16900
C63         C  0.46086246  0.48552444  0.85166937    -0.17200
C64         C  0.02133260  0.04196231  0.83990187    -0.17200
C65         C  0.01524222  0.48105342  0.83807835    -0.16800
C66         C  0.46031355  0.48769794  0.83851687    -0.17100
C67         C  0.17001846  0.33709165  0.49854066     0.45600
H68         H  0.17050757  0.33876567  0.48792811    -0.03400
C69         C  0.16745218  0.33228057  0.52344791     0.45700
H70         H  0.16584822  0.32961492  0.53405883    -0.03400
C71         C  0.19005274  0.31782375  0.50424841    -0.17100
C72         C  0.18795546  0.37440710  0.50548561    -0.16900
C73         C  0.13069451  0.31672527  0.50403145    -0.17200
C74         C  0.18662238  0.31420814  0.51738888    -0.17200
C75         C  0.18811620  0.37117981  0.51871241    -0.16800
C76         C  0.13022641  0.31535018  0.51716053    -0.17100
C77         C  0.33262859  0.16812947  0.47719808     0.45600
H78         H  0.33214625  0.16961898  0.48780897    -0.03400
C79         C  0.33440940  0.16500498  0.45222805     0.45700
H80         H  0.33569498  0.16378694  0.44160929    -0.03400
C81         C  0.31511442  0.18783230  0.47027098    -0.17100
C82         C  0.37175406  0.18634996  0.47160481    -0.16900
C83         C  0.31241798  0.12889738  0.47159423    -0.17200
C84         C  0.31561370  0.18527637  0.45706118    -0.17200
C85         C  0.37181813  0.18328781  0.45847153    -0.16800
C86         C  0.31410852  0.12813131  0.45844268    -0.17100
Zn87       Zn  0.28585825  0.14272886  0.59137675     1.49700
Zn88       Zn  0.36060633  0.14043785  0.59224372     1.49400
Zn89       Zn  0.36167238  0.21647185  0.59056188     1.49100
Zn90       Zn  0.33622498  0.16945667  0.61536028     1.49500
O91         O  0.33622791  0.16723865  0.59706989    -1.84000
O92         O  0.27606827  0.09942428  0.58118075    -0.74600
O93         O  0.40085335  0.17036495  0.57989605    -0.74400
O94         O  0.32894908  0.22518499  0.57901605    -0.73900
O95         O  0.32558244  0.09496934  0.58290504    -0.74600
O96         O  0.27597207  0.17464258  0.57990031    -0.74200
O97         O  0.40395601  0.22366828  0.57997776    -0.74800
O98         O  0.35542318  0.21833325  0.62172978    -0.74200
O99         O  0.38281675  0.12864276  0.60770361    -0.75000
O100        O  0.37952891  0.25378720  0.60484668    -0.74300
O101        O  0.36723356  0.15357074  0.62314280    -0.74800
O102        O  0.28814589  0.13910053  0.62276247    -0.74700
O103        O  0.25043728  0.12448944  0.60626773    -0.74500
C104        C  0.29350788  0.08331538  0.57876536     0.77300
C105        C  0.41528208  0.20288579  0.57623754     0.77800
C106        C  0.29595504  0.20636602  0.57564517     0.76700
C107        C  0.37342884  0.24928884  0.61684951     0.77100
C108        C  0.38334534  0.13730749  0.61943852     0.78200
C109        C  0.25643142  0.12369834  0.61819492     0.77300
Zn110      Zn  0.99782043  0.00648939  0.69304495     1.49700
Zn111      Zn  0.47764041  0.02962460  0.71931549     1.49400
Zn112      Zn  0.46994408  0.45182889  0.71560575     1.49100
Zn113      Zn  0.04913247  0.02346754  0.71663890     1.49500
O114        O  0.99850748  0.00261200  0.71129974    -1.84000
O115        O  0.48218318  0.04078888  0.68823684    -0.74600
O116        O  0.43218058  0.49716146  0.72831333    -0.74400
O117        O  0.45268601  0.42101065  0.69934725    -0.73900
O118        O  0.46538963  0.05689320  0.70596876    -0.74600
O119        O  0.46316475  0.46258455  0.68484325    -0.74200
O120        O  0.42622460  0.44296280  0.72602651    -0.74800
O121        O  0.05456712  0.48589835  0.72586956    -0.74200
O122        O  0.01199212  0.06648547  0.73110470    -0.75000
O123        O  0.99989568  0.43706165  0.72571051    -0.74300
O124        O  0.06339579  0.06581160  0.72851441    -0.74800
O125        O  0.08386570  0.03914698  0.70145898    -0.74700
O126        O  0.04496281  0.02148440  0.68530328    -0.74500
C127        C  0.46998579  0.05848663  0.69386399     0.77300
C128        C  0.41497031  0.46340547  0.73030094     0.77800
C129        C  0.45070834  0.43002883  0.68785949     0.76700
C130        C  0.03324451  0.45323924  0.72885862     0.77100
C131        C  0.04532210  0.07873826  0.73366421     0.78200
C132        C  0.07697035  0.03499497  0.68948496     0.77300
C133        C  0.33031804  0.16592335  0.16807147     0.45600
H134        H  0.32923630  0.16425538  0.15746512    -0.03400
C135        C  0.33218335  0.16868233  0.19302201     0.45700
H136        H  0.33326589  0.17013324  0.20367071    -0.03400
C137        C  0.29203021  0.14395504  0.17435553    -0.17100
C138        C  0.35279406  0.15023781  0.17431192    -0.16900
C139        C  0.34740879  0.20517072  0.17355141    -0.17200
C140        C  0.29355271  0.14665046  0.18757987    -0.17200
C141        C  0.35325227  0.15166914  0.18749892    -0.16800
C142        C  0.34834094  0.20561170  0.18675917    -0.17100
C143        C  0.49736366  0.99950305  0.11942471     0.45600
H144        H  0.49789575  0.99974205  0.10876294    -0.03400
C145        C  0.49600107  0.99936691  0.14439375     0.45700
H146        H  0.49561872  0.99798752  0.15496576    -0.03400
C147        C  0.47762046  0.01779093  0.12501037    -0.17100
C148        C  0.47996594  0.46228813  0.12545149    -0.16900
C149        C  0.03520401  0.01959593  0.12567916    -0.17200
C150        C  0.47546040  0.01751978  0.13832988    -0.17200
C151        C  0.47726036  0.46151314  0.13859722    -0.16800
C152        C  0.03545080  0.02012638  0.13885184    -0.17100
Zn153      Zn  0.13598376  0.35512175  0.93625385     1.49700
Zn154      Zn  0.16626049  0.33470690  0.91178960     1.49400
Zn155      Zn  0.21541685  0.36599867  0.93685118     1.49100
Zn156      Zn  0.14687345  0.28686604  0.93676724     1.49500
O157        O  0.16619770  0.33571658  0.93042792    -1.84000
O158        O  0.11330157  0.36703435  0.92143028    -0.74600
O159        O  0.21636447  0.36681880  0.90491808    -0.74400
O160        O  0.21811433  0.40341913  0.94900835    -0.73900
O161        O  0.13288828  0.35050858  0.90457896    -0.74600
O162        O  0.16343209  0.39747267  0.94793985    -0.74200
O163        O  0.25027544  0.38979451  0.92234820    -0.74800
O164        O  0.18351622  0.28283090  0.94734066    -0.74200
O165        O  0.14804568  0.28482064  0.90508314    -0.75000
O166        O  0.23171147  0.33738029  0.94733096    -0.74300
O167        O  0.13089715  0.25056190  0.92247365    -0.74800
O168        O  0.10557850  0.27363279  0.94874233    -0.74700
O169        O  0.09675561  0.32014002  0.94771828    -0.74500
C170        C  0.11369846  0.36260036  0.90936723     0.77300
C171        C  0.24694137  0.38684531  0.91020466     0.77800
C172        C  0.19512839  0.41206281  0.95266643     0.76700
C173        C  0.21560503  0.30475302  0.95091971     0.77100
C174        C  0.13365120  0.25407256  0.91033829     0.78200
C175        C  0.08885484  0.28968004  0.95223254     0.77300
Zn176      Zn  0.36034827  0.21706675  0.03994328     1.49700
Zn177      Zn  0.33166693  0.16661821  0.06435060     1.49400
Zn178      Zn  0.28061670  0.14767061  0.03999277     1.49100
Zn179      Zn  0.35079671  0.13913731  0.03909213     1.49500
O180        O  0.33070074  0.16760580  0.04580333    -1.84000
O181        O  0.37775390  0.25226933  0.05466186    -0.74600
O182        O  0.28191483  0.14522923  0.07161489    -0.74400
O183        O  0.27684625  0.18156102  0.02762824    -0.73900
O184        O  0.35894863  0.21623227  0.07158157    -0.74600
O185        O  0.33204807  0.22932722  0.02786467    -0.74200
O186        O  0.24605744  0.13613401  0.05491490    -0.74800
O187        O  0.31424661  0.09828004  0.02850441    -0.74200
O188        O  0.35455886  0.13874610  0.07071915    -0.75000
O189        O  0.26480088  0.10266031  0.02964618    -0.74300
O190        O  0.36917021  0.12038107  0.05305764    -0.74800
O191        O  0.39178788  0.16791978  0.02724917    -0.74700
O192        O  0.40200713  0.22349334  0.02903305    -0.74500
C193        C  0.37471519  0.24752429  0.06675810     0.77300
C194        C  0.25084593  0.13567204  0.06696997     0.77800
C195        C  0.30004327  0.21242937  0.02344920     0.76700
C196        C  0.28147607  0.08711543  0.02549267     0.77100
C197        C  0.36847701  0.12213588  0.06521390     0.78200
C198        C  0.40918099  0.20075868  0.02407275     0.77300
C199        C  0.30403425  0.26203216  0.99288748    -0.11200
C200        C  0.26903146  0.25685205  0.99247811     0.15300
C201        C  0.24423659  0.23720668  0.00229507     0.02200
C202        C  0.25501683  0.22310162  0.01231733    -0.15600
C203        C  0.29013677  0.22832659  0.01279382    -0.10400
C204        C  0.31468413  0.24748861  0.00277469     0.08900
C205        C  0.25842618  0.27015137  0.98123763     0.10000
S206        S  0.19838495  0.22869274  0.00247037    -0.24700
H207        H  0.23588509  0.20809014  0.01984331     0.20200
S208        S  0.35883775  0.25191651  0.00141403    -0.30400
H209        H  0.32273283  0.27636381  0.98516715     0.10500
C210        C  0.26858681  0.30652604  0.98008146     0.03700
C211        C  0.25605905  0.31753640  0.96959878    -0.12700
C212        C  0.23325837  0.29275383  0.96031932    -0.08400
C213        C  0.22458120  0.25649905  0.96122229     0.07200
C214        C  0.23732626  0.24566840  0.97169599    -0.13500
S215        S  0.29564414  0.33838939  0.99236524    -0.30400
H216        H  0.26253445  0.34522758  0.96899506     0.11400
S217        S  0.19799535  0.22389775  0.94903432    -0.27500
H218        H  0.23050201  0.21792276  0.97260712     0.08700
H219        H  0.34743428  0.21645317  0.00520080     0.27100
H220        H  0.29738521  0.36873782  0.98660707     0.21900
H221        H  0.19463106  0.19355214  0.95537048     0.27200
H222        H  0.20513642  0.25983343  0.99584147     0.16100
C223        C  0.19360968  0.45442090  0.98433890    -0.11200
C224        C  0.22684182  0.48645753  0.98394339     0.15300
C225        C  0.24911463  0.49459076  0.97302846     0.02200
C226        C  0.23806570  0.47005826  0.96287591    -0.15600
C227        C  0.20484155  0.43789299  0.96326744    -0.10400
C228        C  0.18252381  0.42990047  0.97420556     0.08900
C229        C  0.23749429  0.01153618  0.99460767     0.10000
S230        S  0.29174316  0.03697349  0.97096425    -0.24700
H231        H  0.25542809  0.47616725  0.95457788     0.20200
S232        S  0.14094202  0.38787296  0.97625933    -0.30400
H233        H  0.17679322  0.44794220  0.99280859     0.10500
C234        C  0.22405739  0.03472916  0.99722764     0.03700
C235        C  0.23714797  0.05750863  0.00791635    -0.12700
C236        C  0.26342232  0.05750606  0.01607111    -0.08400
C237        C  0.27493715  0.03233259  0.01381655     0.07200
C238        C  0.26227100  0.01009705  0.00302470    -0.13500
S239        S  0.19186089  0.03675038  0.98652933    -0.30400
H240        H  0.22816271  0.07663270  0.00953963     0.11400
S241        S  0.30518988  0.02670835  0.02436463    -0.27500
H242        H  0.27177483  0.99144952  0.00115360     0.08700
H243        H  0.15368475  0.36650355  0.97071798     0.27100
H244        H  0.18885862  0.06352896  0.99320783     0.21900
H245        H  0.29149865  0.03333548  0.03566575     0.27200
H246        H  0.28314790  0.05843778  0.97866917     0.16100
C247        C  0.01057645  0.26858958  0.97446133    -0.11200
C248        C  0.01791149  0.25170700  0.98454865     0.15300
C249        C  0.04721549  0.24554941  0.98362341     0.02200
C250        C  0.06860739  0.25641337  0.97260793    -0.15600
C251        C  0.06182460  0.27400243  0.96255577    -0.10400
C252        C  0.03200855  0.27959478  0.96345065     0.08900
C253        C  0.49008150  0.23840226  0.99462663     0.10000
S254        S  0.05900598  0.22459540  0.99623537    -0.24700
H255        H  0.09169273  0.25243649  0.97214004     0.20200
S256        S  0.01904012  0.29933119  0.95076390    -0.30400
H257        H  0.48525535  0.27233077  0.97415108     0.10500
C258        C  0.49190010  0.26165714  0.00444480     0.03700
C259        C  0.46562132  0.24853023  0.01410755    -0.12700
C260        C  0.43738405  0.21261510  0.01406463    -0.08400
C261        C  0.43589613  0.18945807  0.00408208     0.07200
C262        C  0.46258701  0.20250855  0.99465105    -0.13500
S263        S  0.02794223  0.30788545  0.00528175    -0.30400
H264        H  0.46690989  0.26638285  0.02166604     0.11400
S265        S  0.39944941  0.14390553  0.00210678    -0.27500
H266        H  0.46112161  0.18491199  0.98694244     0.08700
H267        H  0.02933688  0.28446486  0.94073200     0.27100
H268        H  0.01596025  0.31748119  0.01635436     0.21900
H269        H  0.37210302  0.15257687  0.00397371     0.27200
H270        H  0.04647264  0.23678679  0.00643384     0.16100
C271        C  0.39092473  0.30805245  0.09554613    -0.11200
C272        C  0.42232001  0.33920182  0.09175166     0.15300
C273        C  0.43771439  0.34048117  0.07966320     0.02200
C274        C  0.42127133  0.31045832  0.07162145    -0.15600
C275        C  0.38987199  0.27898634  0.07540812    -0.10400
C276        C  0.37415886  0.27822173  0.08745673     0.08900
C277        C  0.43699910  0.37054907  0.10033220     0.10000
S278        S  0.47780003  0.37966576  0.07383513    -0.24700
H279        H  0.43348369  0.31151530  0.06240899     0.20200
S280        S  0.33164554  0.24119641  0.09279120    -0.30400
H281        H  0.37872131  0.30746419  0.10472121     0.10500
C282        C  0.42859060  0.39784263  0.09850756     0.03700
C283        C  0.44341410  0.42735964  0.10678308    -0.12700
C284        C  0.46598622  0.43002901  0.11702447    -0.08400
C285        C  0.47526580  0.40284677  0.11854393     0.07200
C286        C  0.45992458  0.37308963  0.11036191    -0.13500
S287        S  0.39869031  0.39491348  0.08570990    -0.30400
H288        H  0.43716762  0.44833914  0.10529665     0.11400
S289        S  0.00865688  0.40407466  0.12922276    -0.27500
H290        H  0.46689159  0.35227830  0.11151924     0.08700
H291        H  0.31484830  0.23481214  0.08069520     0.27100
H292        H  0.39806959  0.42642156  0.08878051     0.21900
H293        H  0.02582407  0.44107163  0.13141493     0.27200
H294        H  0.49322521  0.39403610  0.08583906     0.16100
C295        C  0.40931356  0.06602291  0.07689598    -0.11200
C296        C  0.41810936  0.07805543  0.08960930     0.15300
C297        C  0.41112739  0.10504237  0.09407808     0.02200
C298        C  0.39501747  0.11853185  0.08586662    -0.15600
C299        C  0.38503411  0.10573909  0.07326189    -0.10400
C300        C  0.39219943  0.07882202  0.06879248     0.08900
C301        C  0.43417769  0.06179916  0.09793518     0.10000
S302        S  0.42190583  0.12410623  0.11002656    -0.24700
H303        H  0.39029277  0.13946228  0.08944036     0.20200
S304        S  0.37905461  0.05839175  0.05315608    -0.30400
H305        H  0.41502508  0.04571525  0.07335037     0.10500
C306        C  0.41546740  0.02475010  0.10077595     0.03700
C307        C  0.43076970  0.01113114  0.10937431    -0.12700
C308        C  0.46297817  0.03392934  0.11591066    -0.08400
C309        C  0.48181496  0.07072345  0.11286241     0.07200
C310        C  0.46802844  0.08403389  0.10358664    -0.13500
S311        S  0.37104936  0.99501169  0.09423057    -0.30400
H312        H  0.41623834  0.98297303  0.11178390     0.11400
S313        S  0.02300389  0.10222176  0.12087386    -0.27500
H314        H  0.48277596  0.11237726  0.10129775     0.08700
H315        H  0.34390650  0.05327286  0.05390869     0.27100
H316        H  0.36471682  0.96386675  0.10079500     0.21900
H317        H  0.00553463  0.09746350  0.13273041     0.27200
H318        H  0.42239628  0.09554937  0.11617418     0.16100
C319        C  0.16031100  0.11156703  0.08220730    -0.11200
C320        C  0.16153549  0.09394334  0.09333220     0.15300
C321        C  0.19258278  0.09150474  0.09598202     0.02200
C322        C  0.22120028  0.10576055  0.08727132    -0.15600
C323        C  0.21994942  0.12284498  0.07594817    -0.10400
C324        C  0.18932132  0.12651119  0.07359529     0.08900
C325        C  0.12901617  0.07578212  0.10145172     0.10000
S326        S  0.19711697  0.06963382  0.11006996    -0.24700
H327        H  0.24447816  0.10285120  0.08928277     0.20200
S328        S  0.18588128  0.15072189  0.06009084    -0.30400
H329        H  0.13650558  0.11359331  0.08021799     0.10500
C330        C  0.12002513  0.09467235  0.11031016     0.03700
C331        C  0.08974945  0.07565658  0.11820964    -0.12700
C332        C  0.06802636  0.03817175  0.11737461    -0.08400
C333        C  0.07673463  0.01958711  0.10815243     0.07200
C334        C  0.10731187  0.03855758  0.10042624    -0.13500
S335        S  0.14719678  0.14286325  0.11158404    -0.30400
H336        H  0.08261701  0.09014185  0.12490318     0.11400
S337        S  0.05066975  0.47084978  0.10574619    -0.27500
H338        H  0.11465993  0.02440391  0.09356805     0.08700
H339        H  0.22213750  0.17852937  0.06073076     0.27100
H340        H  0.12878581  0.14671837  0.12208972     0.21900
H341        H  0.07331807  0.46708561  0.09687866     0.27200
H342        H  0.17196564  0.07261944  0.11783816     0.16100
C343        C  0.42140043  0.12433557  0.16239608    -0.11200
C344        C  0.39852265  0.08830279  0.15879246     0.15300
C345        C  0.36063736  0.07432327  0.15976423     0.02200
C346        C  0.34708554  0.09723913  0.16275063    -0.15600
C347        C  0.36987600  0.13237344  0.16713766    -0.10400
C348        C  0.40772682  0.14580900  0.16710045     0.08900
C349        C  0.41532667  0.06646950  0.15439839     0.10000
S350        S  0.32813389  0.02686542  0.15945932    -0.24700
H351        H  0.31807074  0.08605510  0.16331430     0.20200
S352        S  0.44056855  0.18927665  0.17339008    -0.30400
H353        H  0.45043048  0.13558688  0.16200393     0.10500
C354        C  0.40427346  0.04545782  0.14312693     0.03700
C355        C  0.42111480  0.02591852  0.13959802    -0.12700
C356        C  0.45300217  0.03082995  0.14549089    -0.08400
C357        C  0.46272344  0.05005561  0.15730378     0.07200
C358        C  0.44378538  0.06734400  0.16154775    -0.13500
S359        S  0.37087396  0.04534553  0.13241887    -0.30400
H360        H  0.40934366  0.00695998  0.13190865     0.11400
S361        S  0.49727546  0.05164400  0.16765834    -0.27500
H362        H  0.45135797  0.08198158  0.17052118     0.08700
H363        H  0.41727013  0.20239653  0.17617675     0.27100
H364        H  0.37274818  0.02347738  0.12280085     0.21900
H365        H  0.00023309  0.07894269  0.17642199     0.27200
H366        H  0.35234875  0.01567324  0.16345162     0.16100
C367        C  0.40904993  0.29120552  0.15439164    -0.11200
C368        C  0.39693001  0.31447430  0.15864100     0.15300
C369        C  0.36482325  0.29932904  0.16603350     0.02200
C370        C  0.34729819  0.26279183  0.16950460    -0.15600
C371        C  0.36083463  0.24002137  0.16608862    -0.10400
C372        C  0.39119286  0.25447290  0.15782854     0.08900
C373        C  0.41702092  0.35361077  0.15468208     0.10000
S374        S  0.34521819  0.32525207  0.17183866    -0.24700
H375        H  0.32370525  0.25246333  0.17558373     0.20200
S376        S  0.40862514  0.22754544  0.15143368    -0.30400
H377        H  0.43265257  0.30174586  0.14827702     0.10500
C378        C  0.45257883  0.37813680  0.15894179     0.03700
C379        C  0.47063731  0.41422895  0.15459423    -0.12700
C380        C  0.45435195  0.42658298  0.14579536    -0.08400
C381        C  0.41765217  0.40266791  0.14243424     0.07200
C382        C  0.39994540  0.36676477  0.14663012    -0.13500
S383        S  0.47536530  0.36335841  0.16976519    -0.30400
H384        H  0.99863679  0.43087784  0.15670215     0.11400
S385        S  0.39143878  0.41633327  0.13290119    -0.27500
H386        H  0.37238651  0.34880627  0.14356556     0.08700
H387        H  0.37610363  0.20408609  0.14514526     0.27100
H388        H  0.00863150  0.39484305  0.16973625     0.21900
H389        H  0.41086091  0.45246511  0.13660716     0.27200
H390        H  0.37761287  0.35828479  0.17258475     0.16100
C391        C  0.19569511  0.07075089  0.16500330    -0.11200
C392        C  0.18577068  0.08837388  0.15604659     0.15300
C393        C  0.21287478  0.12284225  0.15180709     0.02200
C394        C  0.24788118  0.13935968  0.15728895    -0.15600
C395        C  0.25711202  0.12224678  0.16685338    -0.10400
C396        C  0.23087489  0.08623835  0.16993070     0.08900
C397        C  0.14661889  0.07035083  0.15204292     0.10000
S398        S  0.20460811  0.14746376  0.13960787    -0.24700
H399        H  0.26753635  0.16650534  0.15449602     0.20200
S400        S  0.24080839  0.05807778  0.17974686    -0.30400
H401        H  0.17535377  0.04449886  0.16835781     0.10500
C402        C  0.12794352  0.03478546  0.14725538     0.03700
C403        C  0.09063154  0.01806316  0.14462533    -0.12700
C404        C  0.07116381  0.03629632  0.14584663    -0.08400
C405        C  0.09033145  0.07239465  0.15034226     0.07200
C406        C  0.12702038  0.08817781  0.15381099    -0.13500
S407        S  0.15198911  0.01140541  0.14340037    -0.30400
H408        H  0.07698567  0.99128767  0.14064125     0.11400
S409        S  0.07188121  0.10188633  0.15084476    -0.27500
H410        H  0.14085904  0.11533712  0.15753567     0.08700
H411        H  0.21219400  0.02492723  0.17547204     0.27100
H412        H  0.12244501  0.98023101  0.13829750     0.21900
H413        H  0.03914918  0.07881027  0.14486318     0.27200
H414        H  0.17683708  0.11722751  0.13340451     0.16100
C415        C  0.41015974  0.08682027  0.64258070    -0.11200
C416        C  0.42748131  0.11314404  0.65210079     0.15300
C417        C  0.43394369  0.14814629  0.64998731     0.02200
C418        C  0.42178692  0.15573985  0.63864893    -0.15600
C419        C  0.40239012  0.12895804  0.62943502    -0.10400
C420        C  0.39704452  0.09419391  0.63135245     0.08900
C421        C  0.43868751  0.10337422  0.66409801     0.10000
S422        S  0.45620528  0.18388750  0.66156413    -0.24700
H423        H  0.42591794  0.18250131  0.63728864     0.20200
S424        S  0.37153416  0.05765842  0.62039531    -0.30400
H425        H  0.40557219  0.05998287  0.64416104     0.10500
C426        C  0.41328675  0.08229192  0.67354822     0.03700
C427        C  0.42481247  0.07110185  0.68430466    -0.12700
C428        C  0.46115514  0.08058955  0.68564263    -0.08400
C429        C  0.48683434  0.10395014  0.67662879     0.07200
C430        C  0.47532082  0.11492825  0.66592730    -0.13500
S431        S  0.36612220  0.06865089  0.67163862    -0.30400
H432        H  0.40519862  0.05279506  0.69114016     0.11400
S433        S  0.03707283  0.11737319  0.67621386    -0.27500
H434        H  0.49488114  0.13172118  0.65877510     0.08700
H435        H  0.34367479  0.06558227  0.61854633     0.27100
H436        H  0.35409490  0.04924579  0.68316009     0.21900
H437        H  0.03791182  0.11443984  0.68963306     0.27200
H438        H  0.44349392  0.16215209  0.67254222     0.16100
C439        C  0.40233197  0.34384219  0.66823551    -0.11200
C440        C  0.41963701  0.35619440  0.65633692     0.15300
C441        C  0.44544000  0.39273385  0.65483075     0.02200
C442        C  0.45342982  0.41596552  0.66517415    -0.15600
C443        C  0.43716631  0.40364916  0.67725588    -0.10400
C444        C  0.41091803  0.36707777  0.67872237     0.08900
C445        C  0.41027849  0.33036520  0.64570237     0.10000
S446        S  0.47037278  0.41123860  0.64018136    -0.24700
H447        H  0.47397527  0.44383893  0.66386727     0.20200
S448        S  0.38690187  0.34859433  0.69348441    -0.30400
H449        H  0.38201670  0.31581206  0.66934738     0.10500
C450        C  0.41668479  0.30143577  0.64672540     0.03700
C451        C  0.40557702  0.27636340  0.63680382    -0.12700
C452        C  0.38846568  0.27964435  0.62581243    -0.08400
C453        C  0.38346266  0.30945332  0.62451299     0.07200
C454        C  0.39444640  0.33454722  0.63449441    -0.13500
S455        S  0.43955038  0.29662584  0.66053533    -0.30400
H456        H  0.40981745  0.25366905  0.63765306     0.11400
S457        S  0.36176017  0.31600180  0.61078366    -0.27500
H458        H  0.38973879  0.35696193  0.63369124     0.08700
H459        H  0.38409587  0.37886828  0.69661991     0.27100
H460        H  0.43591694  0.26338836  0.65707802     0.21900
H461        H  0.33608647  0.27953504  0.60902458     0.27200
H462        H  0.47220357  0.38066354  0.63666787     0.16100
C463        C  0.20183311  0.06706415  0.64599520    -0.11200
C464        C  0.17808995  0.08013188  0.64789132     0.15300
C465        C  0.17770676  0.10492465  0.63911102     0.02200
C466        C  0.20204093  0.11704284  0.62886454    -0.15600
C467        C  0.22658513  0.10483730  0.62722893    -0.10400
C468        C  0.22591557  0.07896944  0.63571857     0.08900
C469        C  0.15392980  0.06717839  0.65907581     0.10000
S470        S  0.14815285  0.12334876  0.64072470    -0.24700
H471        H  0.20292030  0.13728447  0.62246488     0.20200
S472        S  0.25551204  0.06060264  0.63403864    -0.30400
H473        H  0.20173112  0.04764713  0.65262836     0.10500
C474        C  0.12200620  0.03364576  0.65875296     0.03700
C475        C  0.09833946  0.02321191  0.66916558    -0.12700
C476        C  0.10578517  0.04576808  0.67986952    -0.08400
C477        C  0.13829560  0.07910876  0.68026594     0.07200
C478        C  0.16228253  0.08924467  0.66992327    -0.13500
S479        S  0.11057185  0.00502807  0.64479223    -0.30400
H480        H  0.07335245  0.99770293  0.66883959     0.11400
S481        S  0.14930512  0.11096315  0.69311564    -0.27500
H482        H  0.18689069  0.11512975  0.67007723     0.08700
H483        H  0.25907252  0.06439750  0.62063525     0.27100
H484        H  0.07216361  0.48487111  0.64731173     0.21900
H485        H  0.11428841  0.10607918  0.69410026     0.27200
H486        H  0.12043303  0.09467299  0.64753973     0.16100
C487        C  0.23579697  0.01339076  0.55388003    -0.11200
C488        C  0.24379867  0.48698903  0.55580822     0.15300
C489        C  0.26777817  0.49090328  0.56580127     0.02200
C490        C  0.28261363  0.02224997  0.57403234    -0.15600
C491        C  0.27598351  0.05021353  0.57098538    -0.10400
C492        C  0.25234075  0.04562264  0.56070377     0.08900
C493        C  0.22981865  0.45674148  0.54673644     0.10000
S494        S  0.27917581  0.45688965  0.56960169    -0.24700
H495        H  0.30047521  0.02534657  0.58192699     0.20200
S496        S  0.24414836  0.08055760  0.55513121    -0.30400
H497        H  0.21853486  0.01034811  0.54578254     0.10500
C498        C  0.19505321  0.42682394  0.54792448     0.03700
C499        C  0.18298510  0.39936051  0.53878969    -0.12700
C500        C  0.20454549  0.40130868  0.52826827    -0.08400
C501        C  0.24040068  0.43108055  0.52756332     0.07200
C502        C  0.25209778  0.45849130  0.53666178    -0.13500
S503        S  0.16632074  0.42343985  0.56116585    -0.30400
H504        H  0.15639732  0.37627922  0.53987510     0.11400
S505        S  0.27430799  0.43628294  0.51615853    -0.27500
H506        H  0.27918518  0.48142724  0.53599034     0.08700
H507        H  0.28023304  0.10827333  0.55657021     0.27100
H508        H  0.13731982  0.38917349  0.55812453     0.21900
H509        H  0.25468439  0.40310786  0.51030139     0.27200
H510        H  0.24671264  0.42738403  0.56528481     0.16100
C511        C  0.05030558  0.29901423  0.53806268    -0.11200
C512        C  0.03749885  0.26344509  0.54180358     0.15300
C513        C  0.05417302  0.24476270  0.53692123     0.02200
C514        C  0.08332632  0.26214697  0.52849229    -0.15600
C515        C  0.09693607  0.29812039  0.52505234    -0.10400
C516        C  0.08012215  0.31686255  0.52997848     0.08900
C517        C  0.00653358  0.24683924  0.55072895     0.10000
S518        S  0.04042920  0.19926859  0.54139759    -0.24700
H519        H  0.09621880  0.24777830  0.52491590     0.20200
S520        S  0.09456631  0.36334533  0.52682161    -0.30400
H521        H  0.03725794  0.31325072  0.54171102     0.10500
C522        C  0.50912065  0.26176232  0.56347056     0.03700
C523        C  0.47869878  0.24687128  0.57142880    -0.12700
C524        C  0.44611582  0.21717860  0.56743269    -0.08400
C525        C  0.44372001  0.20214607  0.55518125     0.07200
C526        C  0.47405018  0.21711365  0.54720194    -0.13500
S527        S  0.05212155  0.29528253  0.56946689    -0.30400
H528        H  0.48031106  0.25805880  0.58087872     0.11400
S529        S  0.40248253  0.16497022  0.54898845    -0.27500
H530        H  0.47202959  0.20601527  0.53769877     0.08700
H531        H  0.12445004  0.37121147  0.51924202     0.27100
H532        H  0.53828054  0.30308848  0.58109405     0.21900
H533        H  0.37893251  0.17400122  0.55520186     0.27200
H534        H  0.02937920  0.20142800  0.55390105     0.16100
C535        C  0.21001041  0.24735170  0.53253974    -0.11200
C536        C  0.23270224  0.26808771  0.54258194     0.15300
C537        C  0.23951891  0.30337609  0.54442264     0.02200
C538        C  0.22417221  0.31735078  0.53603314    -0.15600
C539        C  0.20174738  0.29688480  0.52582531    -0.10400
C540        C  0.19373843  0.26092322  0.52437120     0.08900
C541        C  0.24856686  0.25197590  0.55101406     0.10000
S542        S  0.26750599  0.33194374  0.55725283    -0.24700
H543        H  0.23013008  0.34473516  0.53740483     0.20200
S544        S  0.16127811  0.22989945  0.51306183    -0.30400
H545        H  0.20417680  0.21997121  0.53128643     0.10500
C546        C  0.22760315  0.22640946  0.56037262     0.03700
C547        C  0.24362799  0.21166454  0.56816016    -0.12700
C548        C  0.28021087  0.22172262  0.56672333    -0.08400
C549        C  0.30076762  0.24658343  0.55698699     0.07200
C550        C  0.28490740  0.26185150  0.54943107    -0.13500
S551        S  0.18070641  0.21340538  0.56263170    -0.30400
H552        H  0.22772816  0.19265752  0.57556415     0.11400
S553        S  0.34656632  0.25844695  0.55317822    -0.27500
H554        H  0.30076595  0.28098426  0.54203410     0.08700
H555        H  0.14081262  0.24697243  0.51248897     0.27100
H556        H  0.17325718  0.18789849  0.57230769     0.21900
H557        H  0.34074822  0.22350336  0.55481883     0.27200
H558        H  0.25940903  0.30436582  0.56611302     0.16100
C559        C  0.23670824  0.03673110  0.48252773    -0.11200
C560        C  0.25617835  0.02196801  0.48811017     0.15300
C561        C  0.29407463  0.04404113  0.48935702     0.02200
C562        C  0.31139650  0.07953509  0.48479000    -0.15600
C563        C  0.29210708  0.09442387  0.47909180    -0.10400
C564        C  0.25411116  0.07221000  0.47790520     0.08900
C565        C  0.23612618  0.48403157  0.49164453     0.10000
S566        S  0.32199891  0.02810004  0.49630577    -0.24700
H567        H  0.34052568  0.09454437  0.48474750     0.20200
S568        S  0.22754299  0.08787703  0.46974434    -0.30400
H569        H  0.20771362  0.01986748  0.48145029     0.10500
C570        C  0.20973291  0.47106568  0.50137638     0.03700
C571        C  0.19178950  0.43449197  0.50459543    -0.12700
C572        C  0.20108035  0.41034809  0.49902539    -0.08400
C573        C  0.22614912  0.42294542  0.48876312     0.07200
C574        C  0.24311147  0.45947080  0.48515072    -0.13500
S575        S  0.20078127  0.50150396  0.51048502    -0.30400
H576        H  0.17184905  0.42513073  0.51213060     0.11400
S577        S  0.23955218  0.39398753  0.48099830    -0.27500
H578        H  0.26292613  0.46932906  0.47752557     0.08700
H579        H  0.19535445  0.05461620  0.46887798     0.27100
H580        H  0.17695236  0.47633010  0.51942738     0.21900
H581        H  0.25840175  0.41722184  0.47078922     0.27200
H582        H  0.29640737  0.00634802  0.50551395     0.16100
C583        C  0.04020893  0.25197269  0.48805041    -0.11200
C584        C  0.02087214  0.27015533  0.48992373     0.15300
C585        C  0.03979468  0.30524002  0.49513397     0.02200
C586        C  0.07721066  0.32179422  0.49738516    -0.15600
C587        C  0.09585809  0.30270569  0.49657052    -0.10400
C588        C  0.07684894  0.26728730  0.49172151     0.08900
C589        C  0.48081376  0.25067594  0.48649973     0.10000
S590        S  0.01734611  0.32875931  0.50068445    -0.24700
H591        H  0.09126787  0.34903145  0.50088355     0.20200
S592        S  0.09843245  0.24069227  0.49073152    -0.30400
H593        H  0.02605298  0.22506355  0.48413542     0.10500
C594        C  0.46614960  0.26473046  0.47758648     0.03700
C595        C  0.42923661  0.24484885  0.47436570    -0.12700
C596        C  0.40666679  0.20965250  0.47881523    -0.08400
C597        C  0.42064404  0.19650087  0.48829866     0.07200
C598        C  0.45732295  0.21699900  0.49200661    -0.13500
S599        S  0.99454205  0.30783830  0.46987107    -0.30400
H600        H  0.41818163  0.25602888  0.46768470     0.11400
S601        S  0.39234583  0.15377661  0.49573264    -0.27500
H602        H  0.46809426  0.20645113  0.49908439     0.08700
H603        H  0.06855513  0.20922389  0.48596681     0.27100
H604        H  0.46858067  0.30385391  0.46042499     0.21900
H605        H  0.41885350  0.15380143  0.50374077     0.27200
H606        H  0.48409845  0.29842718  0.50300027     0.16100
C607        C  0.26626499  0.29888779  0.49584652    -0.11200
C608        C  0.24897809  0.27042636  0.48721746     0.15300
C609        C  0.21448020  0.26175368  0.48249855     0.02200
C610        C  0.19713274  0.27995756  0.48724350    -0.15600
C611        C  0.21305154  0.30634319  0.49683840    -0.10400
C612        C  0.24917228  0.31716436  0.50055399     0.08900
C613        C  0.26783863  0.25044802  0.48350330     0.10000
S614        S  0.19089559  0.22702733  0.47072119    -0.24700
H615        H  0.17034024  0.27219602  0.48385359     0.20200
S616        S  0.27469383  0.35464991  0.51112570    -0.30400
H617        H  0.29324006  0.30636719  0.49905711     0.10500
C618        C  0.29746809  0.26510854  0.47499459     0.03700
C619        C  0.31484882  0.24573914  0.47200729    -0.12700
C620        C  0.30251339  0.21092893  0.47680333    -0.08400
C621        C  0.27486709  0.19753372  0.48617111     0.07200
C622        C  0.25770534  0.21730277  0.48933602    -0.13500
S623        S  0.31352581  0.30780416  0.46720249    -0.30400
H624        H  0.33691597  0.25708081  0.46519712     0.11400
S625        S  0.25966160  0.15447778  0.49356284    -0.27500
H626        H  0.23590333  0.20673706  0.49624013     0.08700
H627        H  0.30624990  0.35225154  0.51190424     0.27100
H628        H  0.27973512  0.30579289  0.46639139     0.21900
H629        H  0.23389114  0.15515639  0.50175133     0.27200
H630        H  0.22204930  0.23167851  0.46445302     0.16100
C631        C  0.37003286  0.42824658  0.86843495    -0.11200
C632        C  0.36832499  0.45415689  0.87599229     0.15300
C633        C  0.39659586  0.48999859  0.87550278     0.02200
C634        C  0.42624545  0.49898341  0.86757337    -0.15600
C635        C  0.42842908  0.47312623  0.86000795    -0.10400
C636        C  0.39970019  0.43705800  0.86057164     0.08900
C637        C  0.33822165  0.44168419  0.88512838     0.10000
S638        S  0.39665511  0.52531447  0.88482253    -0.24700
H639        H  0.44648246  0.02548937  0.86733547     0.20200
S640        S  0.39900826  0.40009704  0.85230335    -0.30400
H641        H  0.34842720  0.40054438  0.86900217     0.10500
C642        C  0.30376980  0.43446052  0.88116957     0.03700
C643        C  0.27460054  0.41734744  0.88966136    -0.12700
C644        C  0.27916433  0.40673705  0.90196403    -0.08400
C645        C  0.31411579  0.41443883  0.90586185     0.07200
C646        C  0.34324441  0.43239131  0.89749312    -0.13500
S647        S  0.29704738  0.44644713  0.86521644    -0.30400
H648        H  0.24802158  0.41170974  0.88663424     0.11400
S649        S  0.32307108  0.39930748  0.92080893    -0.27500
H650        H  0.36973132  0.43727881  0.90035529     0.08700
H651        H  0.43434316  0.41960401  0.84802508     0.27100
H652        H  0.25997103  0.43449858  0.86651402     0.21900
H653        H  0.29290412  0.36451191  0.91985565     0.27200
H654        H  0.35892216  0.50975246  0.88558263     0.16100
C655        C  0.05296781  0.39662289  0.89591167    -0.11200
C656        C  0.05897760  0.39622752  0.88271403     0.15300
C657        C  0.08005113  0.38160401  0.87831699     0.02200
C658        C  0.09684007  0.37036371  0.88720038    -0.15600
C659        C  0.09224318  0.37207654  0.90052735    -0.10400
C660        C  0.06828422  0.38375315  0.90480483     0.08900
C661        C  0.04671122  0.41516055  0.87398676     0.10000
S662        S  0.08695717  0.37698994  0.86150205    -0.24700
H663        H  0.11399880  0.36051209  0.88357222     0.20200
S664        S  0.05556710  0.38285226  0.92132726    -0.30400
H665        H  0.03650974  0.40753096  0.89933989     0.10500
C666        C  0.00996281  0.40477758  0.87258052     0.03700
C667        C  0.00045562  0.42584761  0.86509986    -0.12700
C668        C  0.02673472  0.45652693  0.85868962    -0.08400
C669        C  0.06353985  0.46691296  0.86019462     0.07200
C670        C  0.07303716  0.44602706  0.86774277    -0.13500
S671        S  0.97514335  0.36446976  0.88011398    -0.30400
H672        H  0.97240643  0.41848238  0.86429693     0.11400
S673        S  0.09904972  0.00683766  0.85291247    -0.27500
H674        H  0.10126815  0.45438564  0.86919122     0.08700
H675        H  0.04721645  0.34713431  0.92320203     0.27100
H676        H  0.94549498  0.36698790  0.87556488     0.21900
H677        H  0.12784399  0.00135739  0.85618846     0.27200
H678        H  0.05475870  0.37478373  0.85713995     0.16100
C679        C  0.09714195  0.12462411  0.86857834    -0.11200
C680        C  0.07836975  0.12644658  0.87926535     0.15300
C681        C  0.04377742  0.09747331  0.88202841     0.02200
C682        C  0.02814662  0.06801844  0.87377754    -0.15600
C683        C  0.04526336  0.06727864  0.86235626    -0.10400
C684        C  0.08146679  0.09517203  0.86022518     0.08900
C685        C  0.09470599  0.15949453  0.88704538     0.10000
S686        S  0.51717913  0.09673732  0.89600290    -0.24700
H687        H  0.50092428  0.04657990  0.87624659     0.20200
S688        S  0.11053675  0.09515534  0.84768206    -0.30400
H689        H  0.12425778  0.14647569  0.86671659     0.10500
C690        C  0.11107219  0.16165241  0.89898351     0.03700
C691        C  0.12354910  0.19281595  0.90643392    -0.12700
C692        C  0.11972076  0.22171895  0.90218094    -0.08400
C693        C  0.10285398  0.21907023  0.89021273     0.07200
C694        C  0.09129834  0.18838069  0.88269093    -0.13500
S695        S  0.11607232  0.12477280  0.90465997    -0.30400
H696        H  0.13653294  0.19480212  0.91556330     0.11400
S697        S  0.09278165  0.25252063  0.88437554    -0.27500
H698        H  0.07798271  0.18625216  0.87360659     0.08700
H699        H  0.08836508  0.06001147  0.84339955     0.27100
H700        H  0.13138448  0.13989697  0.91662667     0.21900
H701        H  0.08274543  0.25942655  0.89643098     0.27200
H702        H  0.02922026  0.13380718  0.89558190     0.16100
C703        C  0.29106521  0.38012315  0.77338280    -0.11200
C704        C  0.29071249  0.40217022  0.76358850     0.15300
C705        C  0.26035848  0.40650183  0.76208761     0.02200
C706        C  0.23128464  0.38906444  0.77051736    -0.15600
C707        C  0.23208860  0.36815175  0.78073068    -0.10400
C708        C  0.26190752  0.36252845  0.78179933     0.08900
C709        C  0.32182408  0.41890392  0.75478697     0.10000
S710        S  0.25690226  0.43373537  0.74965502    -0.24700
H711        H  0.20836480  0.39312560  0.76941732     0.20200
S712        S  0.26379557  0.33164692  0.79294467    -0.30400
H713        H  0.31398271  0.37598413  0.77428430     0.10500
C714        C  0.35233650  0.45233855  0.75762664     0.03700
C715        C  0.38188492  0.46673100  0.74922997    -0.12700
C716        C  0.38177601  0.44798897  0.73816484    -0.08400
C717        C  0.35071604  0.41465703  0.73526763     0.07200
C718        C  0.32122425  0.40042741  0.74364826    -0.13500
S719        S  0.35358644  0.47639346  0.77200508    -0.30400
H720        H  0.40560936  0.49223647  0.75147203     0.11400
S721        S  0.34650906  0.38943486  0.72092371    -0.27500
H722        H  0.29755792  0.37476328  0.74147553     0.08700
H723        H  0.22641277  0.31068172  0.79439910     0.27100
H724        H  0.37708977  0.01194182  0.76531594     0.21900
H725        H  0.36591206  0.41963744  0.71303540     0.27200
H726        H  0.29399541  0.45864101  0.74871450     0.16100
C727        C  0.11372910  0.41262049  0.77239259    -0.11200
C728        C  0.09298266  0.38986595  0.76243242     0.15300
C729        C  0.09083865  0.35639704  0.76101593     0.02200
C730        C  0.10847022  0.34604229  0.76985204    -0.15600
C731        C  0.12789113  0.36770393  0.78039600    -0.10400
C732        C  0.13195588  0.40268975  0.78117245     0.08900
C733        C  0.07606526  0.40317738  0.75325836     0.10000
S734        S  0.06700401  0.32595089  0.74798746    -0.24700
H735        H  0.10658727  0.32036877  0.76841358     0.20200
S736        S  0.16175258  0.43836217  0.79185834    -0.30400
H737        H  0.11654615  0.43903188  0.77310280     0.10500
C738        C  0.04091117  0.39725795  0.75522750     0.03700
C739        C  0.02682081  0.41248729  0.74674574    -0.12700
C740        C  0.04753058  0.43408380  0.73647120    -0.08400
C741        C  0.08240877  0.43892927  0.73432755     0.07200
C742        C  0.09634452  0.42370034  0.74279505    -0.13500
S743        S  0.01448003  0.37097407  0.76872145    -0.30400
H744        H  0.00014467  0.40873817  0.74840672     0.11400
S745        S  0.11025909  0.46364783  0.72087727    -0.27500
H746        H  0.12331307  0.42800427  0.74126474     0.08700
H747        H  0.17658259  0.42067382  0.79823190     0.27100
H748        H  0.48291760  0.36663880  0.76463929     0.21900
H749        H  0.08131884  0.45325036  0.71226138     0.27200
H750        H  0.04179757  0.33712260  0.74570007     0.16100
C751        C  0.11108470  0.16793092  0.74927173    -0.11200
C752        C  0.09380483  0.16512023  0.76101255     0.15300
C753        C  0.06126879  0.13311980  0.76385654     0.02200
C754        C  0.04619861  0.10551790  0.75475198    -0.15600
C755        C  0.06313301  0.10859526  0.74292466    -0.10400
C756        C  0.09610807  0.14016481  0.74020621     0.08900
C757        C  0.10726035  0.19768297  0.76913427     0.10000
S758        S  0.03730624  0.12585772  0.77882113    -0.24700
H759        H  0.02104350  0.08126515  0.75694536     0.20200
S760        S  0.11904154  0.14775811  0.72503545    -0.30400
H761        H  0.13552159  0.19268399  0.74688829     0.10500
C762        C  0.14169561  0.21465107  0.77493527     0.03700
C763        C  0.15317200  0.24640231  0.78200561    -0.12700
C764        C  0.13082625  0.26140313  0.78356671    -0.08400
C765        C  0.09571070  0.24325657  0.77803301     0.07200
C766        C  0.08486742  0.21234680  0.77075218    -0.13500
S767        S  0.17052835  0.19533492  0.77367712    -0.30400
H768        H  0.17956719  0.25944061  0.78641410     0.11400
S769        S  0.06188175  0.25581253  0.78012355    -0.27500
H770        H  0.05828398  0.19921095  0.76635359     0.08700
H771        H  0.08746660  0.13007909  0.71754074     0.27100
H772        H  0.19944811  0.22161091  0.78095354     0.21900
H773        H  0.08364718  0.28527338  0.78764513     0.27200
H774        H  0.06679946  0.15102246  0.78613090     0.16100
C775        C  0.07383297  0.38340823  0.80987414    -0.11200
C776        C  0.09190368  0.41110072  0.81877438     0.15300
C777        C  0.12428266  0.41541247  0.82430839     0.02200
C778        C  0.13930590  0.39462360  0.81973026    -0.15600
C779        C  0.12180462  0.36811174  0.81017195    -0.10400
C780        C  0.08697652  0.36091386  0.80626431     0.08900
C781        C  0.07284955  0.43090429  0.82286647     0.10000
S782        S  0.14736838  0.44629940  0.83727353    -0.24100
H783        H  0.16540517  0.40013015  0.82329852     0.20200
S784        S  0.05556339  0.32124498  0.79785277    -0.30400
H785        H  0.04793883  0.37803019  0.80609439     0.10500
C786        C  0.08698602  0.46824613  0.82121557     0.03700
C787        C  0.06621477  0.48408488  0.82497533    -0.12700
C788        C  0.03117197  0.46327841  0.83004511    -0.08400
C789        C  0.01604007  0.42561113  0.83030066     0.07200
C790        C  0.03714111  0.41021624  0.82716489    -0.13500
S791        S  0.13109763  0.49569108  0.81424434    -0.30400
H792        H  0.07786690  0.01235679  0.82387894     0.11400
S793        S  0.46957472  0.39615453  0.83416565    -0.27500
H794        H  0.02552411  0.38144225  0.82790752     0.08700
H795        H  0.06297979  0.29961928  0.80591977     0.27100
H796        H  0.13050065  0.02727414  0.81372450     0.21900
H797        H  0.47115184  0.36448927  0.83554778     0.27200
H798        H  0.11668768  0.44589766  0.84230743     0.16100
C799        C  0.36517463  0.46688019  0.82913631    -0.11200
C800        C  0.35105194  0.43329679  0.82318790     0.15300
C801        C  0.37522543  0.42067902  0.82035417     0.02200
C802        C  0.41164015  0.44030835  0.82447000    -0.15600
C803        C  0.42514196  0.47297082  0.83114809    -0.10400
C804        C  0.40164345  0.48696408  0.83274589     0.08900
C805        C  0.31202281  0.41437498  0.81906742     0.10000
S806        S  0.36125345  0.37978323  0.81156680    -0.24700
H807        H  0.42917014  0.42928995  0.82287309     0.20200
S808        S  0.41883862  0.03255787  0.83803431    -0.30400
H809        H  0.34766785  0.47796363  0.83076893     0.10500
C810        C  0.28482341  0.38234227  0.82473016     0.03700
C811        C  0.24869828  0.36608706  0.82015013    -0.12700
C812        C  0.23885474  0.38085908  0.80990949    -0.08400
C813        C  0.26577803  0.41558912  0.80553259     0.07200
C814        C  0.30155971  0.43099879  0.80987952    -0.13500
S815        S  0.29601445  0.36253709  0.83791229    -0.30400
H816        H  0.22832356  0.34123715  0.82432234     0.11400
S817        S  0.25748889  0.44439544  0.79527136    -0.27500
H818        H  0.32172743  0.45678756  0.80607810     0.08700
H819        H  0.45197765  0.04566805  0.83157859     0.27100
H820        H  0.26056881  0.33469155  0.84034262     0.21900
H821        H  0.22234304  0.41970509  0.79193056     0.27200
H822        H  0.33670428  0.38336605  0.80361371     0.16100
C823        C  0.12976142  0.20983783  0.82005373    -0.11200
C824        C  0.09204041  0.18839620  0.81884420     0.15300
C825        C  0.07260222  0.20486496  0.81434306     0.02200
C826        C  0.09086764  0.24162080  0.81133133    -0.15600
C827        C  0.12876341  0.26280002  0.81184691    -0.10400
C828        C  0.14825144  0.24634198  0.81634398     0.08900
C829        C  0.07316760  0.15013894  0.82349493     0.10000
S830        S  0.02455434  0.17993121  0.81141444    -0.24700
H831        H  0.07538862  0.25317058  0.80762501     0.20200
S832        S  0.19679654  0.27102025  0.81691676    -0.30400
H833        H  0.14477567  0.19770655  0.82377732     0.10500
C834        C  0.07806018  0.12280860  0.81797816     0.03700
C835        C  0.05907960  0.08738817  0.82294475    -0.12700
C836        C  0.03591085  0.07854966  0.83361893    -0.08400
C837        C  0.03022947  0.10622445  0.83870597     0.07200
C838        C  0.04913763  0.14107519  0.83373888    -0.13500
S839        S  0.10855795  0.13298060  0.80464854    -0.30400
H840        H  0.06369709  0.06687155  0.81890448     0.11400
S841        S  0.99890262  0.10057139  0.85129239    -0.27500
H842        H  0.04490533  0.16171395  0.83794656     0.08700
H843        H  0.20174113  0.24249413  0.82078087     0.27100
H844        H  0.10404062  0.09845949  0.80333868     0.21900
H845        H  0.98115941  0.06339871  0.85164290     0.27200
H846        H  0.02307025  0.14750046  0.80819077     0.16100
C847        C  0.43539150  0.33136028  0.22985746    -0.11200
C848        C  0.41856463  0.33288504  0.21853234     0.15300
C849        C  0.41434586  0.36286164  0.21622754     0.02200
C850        C  0.42654249  0.39038412  0.22534467    -0.15600
C851        C  0.44353068  0.38902456  0.23669336    -0.10400
C852        C  0.44759321  0.35884568  0.23899550     0.08900
C853        C  0.40148485  0.30084147  0.21016873     0.10000
S854        S  0.39355536  0.36741525  0.20185634    -0.24700
H855        H  0.42349934  0.41345618  0.22341814     0.20200
S856        S  0.96516292  0.35170484  0.25413484    -0.30400
H857        H  0.43776606  0.30791011  0.23180626     0.10500
C858        C  0.42145813  0.29283994  0.20137499     0.03700
C859        C  0.40345272  0.26201890  0.19364708    -0.12700
C860        C  0.36595697  0.23884948  0.19471796    -0.08400
C861        C  0.34638894  0.24690661  0.20373689     0.07200
C862        C  0.36424717  0.27768336  0.21129735    -0.13500
S863        S  0.46973225  0.32176076  0.20009200    -0.30400
H864        H  0.41857922  0.25560696  0.18688563     0.11400
S865        S  0.29845153  0.21976511  0.20581137    -0.27500
H866        H  0.34894477  0.28379269  0.21811164     0.08700
H867        H  0.95038711  0.36723787  0.26221856     0.27100
H868        H  0.47494834  0.30281036  0.19011467     0.21900
H869        H  0.29241915  0.21397144  0.19261737     0.27200
H870        H  0.40483108  0.34863266  0.19383060     0.16100
C871        C  0.37995904  0.09084298  0.20560100    -0.11200
C872        C  0.40863208  0.11574358  0.21312920     0.15300
C873        C  0.41946442  0.15247859  0.21210574     0.02200
C874        C  0.40128940  0.16325997  0.20353837    -0.15600
C875        C  0.37200828  0.13814621  0.19609864    -0.10400
C876        C  0.36088357  0.10124448  0.19752255     0.08900
C877        C  0.42519393  0.10149698  0.22216440     0.10000
S878        S  0.45561701  0.18666372  0.22158570    -0.24700
H879        H  0.40977282  0.19149716  0.20277933     0.20200
S880        S  0.32069951  0.06510193  0.19064375    -0.30400
H881        H  0.37123510  0.06255807  0.20650722     0.10500
C882        C  0.40520235  0.07968609  0.23257648     0.03700
C883        C  0.41931266  0.06212068  0.23983755    -0.12700
C884        C  0.45321754  0.06607287  0.23700357    -0.08400
C885        C  0.47351778  0.08854152  0.22670154     0.07200
C886        C  0.45937211  0.10609769  0.21945091    -0.13500
S887        S  0.36176401  0.07452271  0.23668532    -0.30400
H888        H  0.40402582  0.04545311  0.24784966     0.11400
S889        S  0.51652254  0.09421219  0.22181804    -0.27500
H890        H  0.47444745  0.12229408  0.21130896     0.08700
H891        H  0.30629736  0.08684923  0.18795736     0.27100
H892        H  0.35351524  0.04962034  0.24665068     0.21900
H893        H  0.50744981  0.05856508  0.22430946     0.27200
H894        H  0.45151457  0.16476570  0.23217127     0.16100
C895        C  0.15062697  0.04313880  0.22280550    -0.11200
C896        C  0.17787005  0.07885009  0.22464932     0.15300
C897        C  0.17519721  0.09878412  0.23490723     0.02200
C898        C  0.14471906  0.08293730  0.24281042    -0.15600
C899        C  0.11704916  0.04732869  0.24087351    -0.10400
C900        C  0.12043867  0.02709807  0.23085048     0.08900
C901        C  0.20707892  0.09542130  0.21507742     0.10000
S902        S  0.20886202  0.14489817  0.23809380    -0.24700
H903        H  0.14235245  0.09869773  0.25046013     0.20200
S904        S  0.08540779  0.98217892  0.22702051    -0.30400
H905        H  0.15245656  0.02799408  0.21482087     0.10500
C906        C  0.23767186  0.09141462  0.21574404     0.03700
C907        C  0.26504380  0.10839379  0.20660252    -0.12700
C908        C  0.26226552  0.12880253  0.19659431    -0.08400
C909        C  0.23133617  0.13289321  0.19603168     0.07200
C910        C  0.20409910  0.11592221  0.20526267    -0.13500
S911        S  0.24219724  0.06540873  0.22843250    -0.30400
H912        H  0.28876565  0.10559811  0.20721840     0.11400
S913        S  0.22674036  0.16130287  0.18434308    -0.27500
H914        H  0.18043713  0.11892639  0.20500258     0.08700
H915        H  0.08879514  0.96817378  0.23878690     0.27100
H916        H  0.27607254  0.07054400  0.22467721     0.21900
H917        H  0.19343123  0.15657103  0.18860348     0.27200
H918        H  0.23836915  0.14375216  0.23271121     0.16100
C919        C  0.04780104  0.36362009  0.33781461    -0.11200
C920        C  0.06204652  0.40016528  0.33520788     0.15300
C921        C  0.08803088  0.42595192  0.34364945     0.02200
C922        C  0.10195076  0.41471294  0.35365547    -0.15600
C923        C  0.08982345  0.37821053  0.35556481    -0.10400
C924        C  0.06118693  0.35240842  0.34795315     0.08900
C925        C  0.05088633  0.41037162  0.32320867     0.10000
S926        S  0.10584228  0.47350730  0.34172747    -0.24700
H927        H  0.12392366  0.43464311  0.35946015     0.20200
S928        S  0.04194014  0.30478630  0.35035680    -0.30400
H929        H  0.02714339  0.34370463  0.33159070     0.10500
C930        C  0.07461181  0.42497113  0.31267969     0.03700
C931        C  0.06336162  0.43559228  0.30168504    -0.12700
C932        C  0.02880685  0.43175243  0.30100569    -0.08400
C933        C  0.00432132  0.41480079  0.31125689     0.07200
C934        C  0.01569914  0.40457349  0.32223680    -0.13500
S935        S  0.11929457  0.43031262  0.31328784    -0.30400
H936        H  0.08208060  0.44846055  0.29385432     0.11400
S937        S  0.95815075  0.40537841  0.31092642    -0.27500
H938        H  0.99710100  0.39234509  0.33016084     0.08700
H939        H  0.05077884  0.30706426  0.36345845     0.27100
H940        H  0.13043269  0.44547819  0.30102922     0.21900
H941        H  0.95393106  0.40056001  0.29755810     0.27200
H942        H  0.07517137  0.47073096  0.33564806     0.16100
C943        C  0.08097061  0.16705877  0.30538477    -0.11200
C944        C  0.09936722  0.16135650  0.31543290     0.15300
C945        C  0.10276995  0.13050908  0.31545029     0.02200
C946        C  0.08633247  0.10519020  0.30571805    -0.15600
C947        C  0.06682634  0.11015911  0.29587994    -0.10400
C948        C  0.06427756  0.14156260  0.29566614     0.08900
C949        C  0.11133400  0.18617511  0.32638511     0.10000
S950        S  0.12661131  0.12140625  0.32781937    -0.24700
H951        H  0.08828068  0.08104223  0.30592535     0.20200
S952        S  0.03769155  0.14917538  0.28399526    -0.30400
H953        H  0.07803457  0.19064231  0.30549748     0.10500
C954        C  0.14207938  0.22044986  0.32555466     0.03700
C955        C  0.15060240  0.24428891  0.33581218    -0.12700
C956        C  0.12873158  0.23459088  0.34683124    -0.08400
C957        C  0.09816451  0.19985229  0.34767492     0.07200
C958        C  0.09012036  0.17585663  0.33750732    -0.13500
S959        S  0.17034922  0.23365798  0.31144560    -0.30400
H960        H  0.17421858  0.27081352  0.33519749     0.11400
S961        S  0.06688728  0.18546621  0.36090009    -0.27500
H962        H  0.06623735  0.14944993  0.33801124     0.08700
H963        H  0.00934726  0.11333034  0.28351794     0.27100
H964        H  0.19512675  0.26874032  0.31551345     0.21900
H965        H  0.06655144  0.21789905  0.36183801     0.27200
H966        H  0.15134543  0.15744404  0.33077505     0.16100
C967        C  0.28942426  0.44122133  0.32702043    -0.11200
C968        C  0.31653596  0.43224861  0.32577189     0.15300
C969        C  0.32255352  0.41376934  0.33578199     0.02200
C970        C  0.29922514  0.40189243  0.34629598    -0.15600
C971        C  0.27040441  0.40860955  0.34712169    -0.10400
C972        C  0.26634389  0.42976621  0.33763261     0.08900
C973        C  0.33790702  0.44246408  0.31387308     0.10000
S974        S  0.35866479  0.40353902  0.33554972    -0.24700
H975        H  0.30267927  0.38597293  0.35360100     0.20200
S976        S  0.23214499  0.44259655  0.33900534    -0.30400
H977        H  0.28589064  0.45648128  0.31948602     0.10500
C978        C  0.33458608  0.41663319  0.30480628     0.03700
C979        C  0.35808732  0.42752749  0.29427113    -0.12700
C980        C  0.38436051  0.46370466  0.29268185    -0.08400
C981        C  0.38521594  0.48975297  0.30115005     0.07200
C982        C  0.36218751  0.47884007  0.31170132    -0.13500
S983        S  0.30131570  0.36981923  0.30688049    -0.30400
H984        H  0.35767696  0.40766097  0.28778986     0.11400
S985        S  0.41697911  0.03594580  0.30099499    -0.27500
H986        H  0.36392045  0.49873994  0.31848325     0.08700
H987        H  0.24011420  0.46210538  0.32749231     0.27100
H988        H  0.30725625  0.35796028  0.29504038     0.21900
H989        H  0.42116226  0.03636694  0.28760238     0.27200
H990        H  0.38246169  0.43266719  0.32787009     0.16100
C991        C  0.28045915  0.99599596  0.41902752    -0.11200
C992        C  0.25950682  0.99733340  0.42908221     0.15300
C993        C  0.22519291  0.47206784  0.43016220     0.02200
C994        C  0.21005812  0.44456248  0.42106665    -0.15600
C995        C  0.23002984  0.44434798  0.41041013    -0.10400
C996        C  0.26631189  0.47235362  0.40900675     0.08900
C997        C  0.27411988  0.03050792  0.43670479     0.10000
S998        S  0.19746062  0.47001768  0.44353821    -0.24700
H999        H  0.18249708  0.42295048  0.42239139     0.20200
S1000       S  0.29409746  0.47606057  0.39543604    -0.30400
H1001       H  0.30818905  0.01749158  0.41794614     0.10500
C1002       C  0.29895385  0.03821774  0.44672230     0.03700
C1003       C  0.31211667  0.07052691  0.45345732    -0.12700
C1004       C  0.30000683  0.09470658  0.45067326    -0.08400
C1005       C  0.27535533  0.08691733  0.44047079     0.07200
C1006       C  0.26276853  0.05491561  0.43361038    -0.13500
S1007       S  0.31307223  0.00657946  0.45113481    -0.30400
H1008       H  0.33205049  0.07701553  0.46089003     0.11400
S1009       S  0.25858898  0.11657748  0.43629427    -0.27500
H1010       H  0.24368554  0.04853038  0.42582609     0.08700
H1011       H  0.26612831  0.46510498  0.38635443     0.27100
H1012       H  0.33198284  0.02451184  0.46232034     0.21900
H1013       H  0.23790352  0.09735284  0.42558014     0.27200
H1014       H  0.22321144  0.98671932  0.45240285     0.16100
C1015       C  0.49623472  0.22196404  0.41450970    -0.11200
C1016       C  0.49916316  0.23730654  0.42664166     0.15300
C1017       C  0.03410092  0.26949643  0.43080910     0.02200
C1018       C  0.06254985  0.28519123  0.42203905    -0.15600
C1019       C  0.05945996  0.27053730  0.40977046    -0.10400
C1020       C  0.02706724  0.23917334  0.40627545     0.08900
C1021       C  0.46652592  0.22338260  0.43474073     0.10000
S1022       S  0.04167260  0.28933276  0.44654977    -0.24700
H1023       H  0.08757123  0.30882117  0.42487896     0.20200
S1024       S  0.02002773  0.21862544  0.39066152    -0.30400
H1025       H  0.47097621  0.19863751  0.41166613     0.10500
C1026       C  0.44810630  0.24263855  0.43611608     0.03700
C1027       C  0.41771807  0.22904919  0.44404401    -0.12700
C1028       C  0.40495865  0.19646924  0.45056122    -0.08400
C1029       C  0.42329981  0.17696073  0.44906401     0.07200
C1030       C  0.45374876  0.19061302  0.44111437    -0.13500
S1031       S  0.46278335  0.28411335  0.42753484    -0.30400
H1032       H  0.40428812  0.24448419  0.44545252     0.11400
S1033       S  0.40922775  0.13421258  0.45657045    -0.27500
H1034       H  0.46785546  0.17572139  0.43995904     0.08700
H1035       H  0.03970860  0.25093460  0.38384997     0.27100
H1036       H  0.43691809  0.29178584  0.43260629     0.21900
H1037       H  0.38755825  0.13591656  0.46625938     0.27200
H1038       H  0.01667399  0.25801281  0.45302657     0.16100
C1039       C  0.27596413  0.28789654  0.42168464    -0.11200
C1040       C  0.26447014  0.25132508  0.42047786     0.15300
C1041       C  0.23802145  0.23050847  0.41123420     0.02200
C1042       C  0.22281893  0.24641081  0.40369376    -0.15600
C1043       C  0.23381697  0.28294159  0.40500052    -0.10400
C1044       C  0.26079083  0.30386636  0.41415501     0.08900
C1045       C  0.27795298  0.23490756  0.42978314     0.10000
S1046       S  0.22231543  0.18349298  0.40870504    -0.24700
H1047       H  0.20233778  0.23012938  0.39668650     0.20200
S1048       S  0.27512367  0.35023642  0.41743310    -0.30400
H1049       H  0.29583474  0.30375350  0.42893214     0.10500
C1050       C  0.31338345  0.24085716  0.42918606     0.03700
C1051       C  0.32441770  0.22392346  0.43808485    -0.12700
C1052       C  0.30127885  0.20172589  0.44777790    -0.08400
C1053       C  0.26532635  0.19526305  0.44812493     0.07200
C1054       C  0.25436860  0.21230217  0.43923197    -0.13500
S1055       S  0.34407883  0.26905366  0.41684901    -0.30400
H1056       H  0.35154798  0.22794069  0.43740806     0.11400
S1057       S  0.23217296  0.16340222  0.45903469    -0.27500
H1058       H  0.22695621  0.20760648  0.43944540     0.08700
H1059       H  0.24012178  0.34555174  0.41683519     0.27100
H1060       H  0.37426451  0.26689704  0.42098982     0.21900
H1061       H  0.20276533  0.16708271  0.45505036     0.27200
H1062       H  0.25456648  0.18474102  0.41240376     0.16100
Zn1063     Zn  0.21814340  0.86003099  0.38386609     1.49700
Zn1064     Zn  0.14535200  0.78428365  0.38451237     1.49400
Zn1065     Zn  0.14194721  0.85723626  0.38795765     1.49100
Zn1066     Zn  0.16161622  0.83750550  0.36162869     1.49500
O1067       O  0.16668803  0.83475499  0.37976804    -1.84000
O1068       O  0.23258530  0.82787262  0.39279387    -0.74600
O1069       O  0.10088984  0.76889011  0.39524277    -0.74400
O1070       O  0.17719657  0.89859885  0.39909594    -0.73900
O1071       O  0.18042692  0.77703967  0.39513496    -0.74600
O1072       O  0.22919019  0.89945367  0.39633337    -0.74200
O1073       O  0.10279020  0.82065303  0.39934257    -0.74800
O1074       O  0.12478113  0.85033770  0.35702123    -0.74200
O1075       O  0.13358854  0.75217114  0.36894514    -0.75000
O1076       O  0.11728182  0.87392144  0.37489030    -0.74300
O1077       O  0.14807402  0.79160320  0.35320731    -0.74800
O1078       O  0.20750722  0.87302462  0.35356870    -0.74700
O1079       O  0.24913111  0.88210506  0.36815792    -0.74500
C1080       C  0.21417899  0.79631744  0.39730833     0.77300
C1081       C  0.08865666  0.78687997  0.40086185     0.77800
C1082       C  0.21079164  0.91184806  0.40150903     0.76700
C1083       C  0.11111109  0.86633499  0.36298497     0.77100
C1084       C  0.13722156  0.75990563  0.35705826     0.78200
C1085       C  0.24030893  0.88660386  0.35693315     0.77300
Zn1086     Zn  0.49490784  0.00135529  0.28483154     1.49700
Zn1087     Zn  0.44947597  0.97803211  0.25924461     1.49400
Zn1088     Zn  0.02775050  0.54952559  0.26044368     1.49100
Zn1089     Zn  0.02193845  0.97165907  0.26273744     1.49500
O1090       O  0.49829609  0.99956548  0.26652398    -1.84000
O1091       O  0.44621310  0.98908298  0.29021136    -0.74600
O1092       O  0.44494691  0.51455845  0.24754122    -0.74400
O1093       O  0.04938183  0.58557402  0.27496320    -0.73900
O1094       O  0.41123167  0.96297162  0.27324430    -0.74600
O1095       O  0.02940156  0.54949108  0.29183888    -0.74200
O1096       O  0.49863153  0.56439251  0.24869131    -0.74800
O1097       O  0.06747190  0.50145540  0.25301189    -0.74200
O1098       O  0.43956674  0.93516329  0.24821313    -0.75000
O1099       O  0.06939086  0.55368744  0.25034497    -0.74300
O1100       O  0.48786445  0.92918693  0.25137435    -0.74800
O1101       O  0.03110096  0.95053220  0.27907699    -0.74700
O1102       O  0.00599705  0.96841820  0.29373038    -0.74500
C1103       C  0.41529411  0.97237074  0.28500349     0.77300
C1104       C  0.46626099  0.54725003  0.24453632     0.77800
C1105       C  0.04826572  0.58040167  0.28700779     0.76700
C1106       C  0.08223084  0.53306476  0.24837931     0.77100
C1107       C  0.45710594  0.91880754  0.24623184     0.78200
C1108       C  0.02138562  0.95090171  0.29062622     0.77300
C1109       C  0.16459417  0.83636985  0.80970627     0.45600
H1110       H  0.16507209  0.83821908  0.82032912    -0.03400
C1111       C  0.16303035  0.83141000  0.78480866     0.45700
H1112       H  0.16265162  0.82890663  0.77420227    -0.03400
C1113       C  0.14227530  0.85199919  0.80315385    -0.17100
C1114       C  0.20322438  0.85731660  0.80330754    -0.16900
C1115       C  0.14688985  0.79672099  0.80456693    -0.17200
C1116       C  0.14377987  0.85121692  0.78988123    -0.17200
C1117       C  0.20136358  0.85237974  0.79016872    -0.16800
C1118       C  0.14592159  0.79486201  0.79144148    -0.17100
C1119       C  0.49906344  0.99930589  0.85770518     0.45600
H1120       H  0.49854127  0.99610336  0.86828274    -0.03400
C1121       C  0.49957172  0.00522262  0.83282582     0.45700
H1122       H  0.49972839  0.00761725  0.82222556    -0.03400
C1123       C  0.02319612  0.53756592  0.85343239    -0.17100
C1124       C  0.01483150  0.97835733  0.85085972    -0.16900
C1125       C  0.46120154  0.98531341  0.85184472    -0.17200
C1126       C  0.02074834  0.54173828  0.84038498    -0.17200
C1127       C  0.01569844  0.98112244  0.83771298    -0.16800
C1128       C  0.46079217  0.98758818  0.83870227    -0.17100
C1129       C  0.16963488  0.83653798  0.49949528     0.45600
H1130       H  0.17014199  0.83820418  0.48888361    -0.03400
C1131       C  0.16693456  0.83160462  0.52439148     0.45700
H1132       H  0.16525198  0.82888594  0.53500017    -0.03400
C1133       C  0.18963100  0.81725292  0.50521046    -0.17100
C1134       C  0.18765204  0.87385788  0.50644361    -0.16900
C1135       C  0.13026956  0.81614549  0.50496284    -0.17200
C1136       C  0.18611853  0.81353745  0.51834762    -0.17200
C1137       C  0.18765581  0.87052338  0.51967293    -0.16800
C1138       C  0.12975316  0.81472275  0.51808664    -0.17100
C1139       C  0.33348777  0.66927216  0.47755041     0.45600
H1140       H  0.33306521  0.67055556  0.48816691    -0.03400
C1141       C  0.33520086  0.66663173  0.45257049     0.45700
H1142       H  0.33645793  0.66561323  0.44194526    -0.03400
C1143       C  0.31613640  0.68927820  0.47074166    -0.17100
C1144       C  0.37258672  0.68735217  0.47193686    -0.16900
C1145       C  0.31300508  0.63017260  0.47184092    -0.17200
C1146       C  0.31658931  0.68696489  0.45752397    -0.17200
C1147       C  0.37262411  0.68448339  0.45879664    -0.16800
C1148       C  0.31464763  0.62966392  0.45868097    -0.17100
Zn1149     Zn  0.28651684  0.64147415  0.59186499     1.49700
Zn1150     Zn  0.36173065  0.64030916  0.59198961     1.49400
Zn1151     Zn  0.36171284  0.71577792  0.59060270     1.49100
Zn1152     Zn  0.33851639  0.66942613  0.61547254     1.49500
O1153       O  0.33721249  0.66667276  0.59717149    -1.84000
O1154       O  0.27679393  0.59865422  0.58138947    -0.74600
O1155       O  0.40148084  0.67080916  0.57955602    -0.74400
O1156       O  0.32816062  0.72330946  0.57921364    -0.73900
O1157       O  0.32674625  0.59483706  0.58253970    -0.74600
O1158       O  0.27518271  0.67293370  0.58064792    -0.74200
O1159       O  0.40414015  0.72390717  0.57990314    -0.74800
O1160       O  0.35681856  0.71824614  0.62181535    -0.74200
O1161       O  0.38506299  0.62908402  0.60725036    -0.75000
O1162       O  0.37898333  0.75336826  0.60475181    -0.74300
O1163       O  0.37123907  0.65510233  0.62285235    -0.74800
O1164       O  0.29108952  0.63834159  0.62326046    -0.74700
O1165       O  0.25232157  0.62251114  0.60706322    -0.74500
C1166       C  0.29446353  0.58303005  0.57858573     0.77300
C1167       C  0.41564321  0.70340164  0.57601645     0.77800
C1168       C  0.29495729  0.70440909  0.57614393     0.76700
C1169       C  0.37366513  0.74909928  0.61679255     0.77100
C1170       C  0.38703654  0.63872204  0.61894006     0.78200
C1171       C  0.25907588  0.62208659  0.61894539     0.77300
Zn1172     Zn  0.99696684  0.50801074  0.69305751     1.49700
Zn1173     Zn  0.47813536  0.53068450  0.71893450     1.49400
Zn1174     Zn  0.47054062  0.95137680  0.71558771     1.49100
Zn1175     Zn  0.04911256  0.52365804  0.71646424     1.49500
O1176       O  0.99845965  0.50364597  0.71127870    -1.84000
O1177       O  0.48672531  0.54384765  0.68794079    -0.74600
O1178       O  0.43193115  0.99547080  0.72859908    -0.74400
O1179       O  0.45347833  0.92033800  0.69930812    -0.73900
O1180       O  0.46760512  0.55886584  0.70535003    -0.74600
O1181       O  0.46757399  0.96237046  0.68461961    -0.74200
O1182       O  0.42684742  0.94183263  0.72603997    -0.74800
O1183       O  0.05482198  0.98612139  0.72629621    -0.74200
O1184       O  0.01355039  0.56701501  0.73158363    -0.75000
O1185       O  0.00075058  0.93651090  0.72584890    -0.74300
O1186       O  0.06440095  0.56561288  0.72858838    -0.74800
O1187       O  0.08327309  0.53943218  0.70120218    -0.74700
O1188       O  0.04416541  0.52431057  0.68519896    -0.74500
C1189       C  0.47440606  0.56173737  0.69336544     0.77300
C1190       C  0.41501753  0.96165692  0.73042703     0.77800
C1191       C  0.45375567  0.92970296  0.68768470     0.76700
C1192       C  0.03399423  0.95323308  0.72914483     0.77100
C1193       C  0.04685885  0.57872790  0.73400329     0.78200
C1194       C  0.07617482  0.53675600  0.68925053     0.77300
C1195       C  0.32943601  0.66627506  0.16792821     0.45600
H1196       H  0.32880828  0.66500231  0.15731429    -0.03400
C1197       C  0.33025856  0.66818066  0.19288830     0.45700
H1198       H  0.33096368  0.66930050  0.20354158    -0.03400
C1199       C  0.29094104  0.64409056  0.17399818    -0.17100
C1200       C  0.35168295  0.65041667  0.17420112    -0.16900
C1201       C  0.34618298  0.70528130  0.17357700    -0.17200
C1202       C  0.29184248  0.64629878  0.18724064    -0.17200
C1203       C  0.35160022  0.65139759  0.18738448    -0.16800
C1204       C  0.34658490  0.70532525  0.18679070    -0.17100
C1205       C  0.49806039  0.50004284  0.11964678     0.45600
H1206       H  0.49876100  0.50023577  0.10898637    -0.03400
C1207       C  0.49627464  0.50005575  0.14461104     0.45700
H1208       H  0.49574484  0.49870001  0.15517987    -0.03400
C1209       C  0.47812132  0.51826799  0.12512609    -0.17100
C1210       C  0.47928948  0.96174827  0.12521753    -0.16900
C1211       C  0.03481334  0.51829108  0.12501170    -0.17200
C1212       C  0.47573585  0.51814527  0.13844392    -0.17200
C1213       C  0.47674676  0.96092722  0.13836274    -0.16800
C1214       C  0.03522385  0.51889628  0.13818100    -0.17100
Zn1215     Zn  0.13576093  0.85549622  0.93588969     1.49700
Zn1216     Zn  0.16526303  0.83438765  0.91155286     1.49400
Zn1217     Zn  0.21526465  0.86646883  0.93652026     1.49100
Zn1218     Zn  0.14685051  0.78733853  0.93668745     1.49500
O1219       O  0.16591748  0.83599168  0.93018964    -1.84000
O1220       O  0.11306278  0.86727585  0.92108118    -0.74600
O1221       O  0.21497945  0.86599150  0.90449344    -0.74400
O1222       O  0.21828064  0.90476067  0.94841761    -0.73900
O1223       O  0.13159216  0.84965506  0.90424979    -0.74600
O1224       O  0.16323389  0.89798466  0.94748212    -0.74200
O1225       O  0.24964945  0.88891446  0.92179115    -0.74800
O1226       O  0.18348896  0.78370903  0.94741425    -0.74200
O1227       O  0.14735864  0.78456165  0.90503593    -0.75000
O1228       O  0.23177053  0.83818259  0.94719500    -0.74300
O1229       O  0.13147336  0.75080169  0.92253537    -0.74800
O1230       O  0.10486648  0.77382087  0.94831927    -0.74700
O1231       O  0.09612523  0.82037283  0.94715245    -0.74500
C1232       C  0.11278778  0.86215545  0.90904887     0.77300
C1233       C  0.24579108  0.88559596  0.90966165     0.77800
C1234       C  0.19509107  0.91315428  0.95208721     0.76700
C1235       C  0.21569057  0.80562980  0.95088136     0.77100
C1236       C  0.13373480  0.75402383  0.91039239     0.78200
C1237       C  0.08783526  0.78973395  0.95158912     0.77300
Zn1238     Zn  0.36095549  0.71742323  0.03969154     1.49700
Zn1239     Zn  0.33216440  0.66708878  0.06422849     1.49400
Zn1240     Zn  0.28157826  0.64771475  0.03977672     1.49100
Zn1241     Zn  0.35233403  0.64004477  0.03916825     1.49500
O1242       O  0.33159111  0.66806932  0.04567824    -1.84000
O1243       O  0.37808256  0.75263865  0.05435087    -0.74600
O1244       O  0.28230431  0.64560135  0.07141092    -0.74400
O1245       O  0.27767384  0.68106639  0.02712476    -0.73900
O1246       O  0.35910641  0.71670535  0.07131811    -0.74600
O1247       O  0.33257720  0.72924448  0.02746236    -0.74200
O1248       O  0.24671858  0.63627545  0.05461750    -0.74800
O1249       O  0.31611162  0.59856438  0.02878121    -0.74200
O1250       O  0.35544518  0.63977328  0.07082701    -0.75000
O1251       O  0.26633484  0.60236145  0.02976681    -0.74300
O1252       O  0.37126930  0.62229427  0.05323968    -0.74800
O1253       O  0.39308387  0.66873527  0.02726004    -0.74700
O1254       O  0.40292641  0.72418641  0.02890936    -0.74500
C1255       C  0.37492027  0.74792278  0.06644386     0.77300
C1256       C  0.25128106  0.63590787  0.06669257     0.77800
C1257       C  0.30070552  0.71200990  0.02293926     0.76700
C1258       C  0.28325378  0.58689839  0.02577801     0.77100
C1259       C  0.37014571  0.62382116  0.06538677     0.78200
C1260       C  0.41029119  0.70152005  0.02401953     0.77300
C1261       C  0.30505930  0.76275905  0.99259391    -0.11200
C1262       C  0.26979492  0.75686814  0.99201351     0.15300
C1263       C  0.24460251  0.73599402  0.00156677     0.02200
C1264       C  0.25531362  0.72166409  0.01153965    -0.15600
C1265       C  0.29073324  0.72774794  0.01222270    -0.10400
C1266       C  0.31561936  0.74789193  0.00240794     0.08900
C1267       C  0.25930065  0.77054433  0.98082417     0.10000
S1268       S  0.19833513  0.72624586  0.00147635    -0.24700
H1269       H  0.23589001  0.70585699  0.01888241     0.20200
S1270       S  0.36015610  0.75318526  0.00118936    -0.30400
H1271       H  0.32406442  0.77789756  0.98504850     0.10500
C1272       C  0.26970082  0.80701855  0.97972801     0.03700
C1273       C  0.25682294  0.81821324  0.96938627    -0.12700
C1274       C  0.23361235  0.79355985  0.96015576    -0.08400
C1275       C  0.22504655  0.75731148  0.96090677     0.07200
C1276       C  0.23793185  0.74625496  0.97127564    -0.13500
S1277       S  0.29753659  0.83880907  0.99190678    -0.30400
H1278       H  0.26338477  0.84593935  0.96885435     0.11400
S1279       S  0.19838793  0.72499640  0.94864816    -0.27500
H1280       H  0.23095026  0.71845149  0.97211593     0.08700
H1281       H  0.34915862  0.71766408  0.00477563     0.27100
H1282       H  0.29992148  0.86939306  0.98610286     0.21900
H1283       H  0.19805255  0.69511098  0.95422915     0.27200
H1284       H  0.20481896  0.75784486  0.99524868     0.16100
C1285       C  0.19268802  0.95639366  0.98345986    -0.11200
C1286       C  0.22598348  0.98834834  0.98312929     0.15300
C1287       C  0.24864018  0.99621657  0.97233223     0.02200
C1288       C  0.23788290  0.97147202  0.96224083    -0.15600
C1289       C  0.20463706  0.93929845  0.96259603    -0.10400
C1290       C  0.18195171  0.93162708  0.97341690     0.08900
C1291       C  0.23855102  0.50977729  0.99537878     0.10000
S1292       S  0.29198825  0.53554894  0.97155086    -0.24700
H1293       H  0.25552588  0.97738257  0.95403801     0.20200
S1294       S  0.14037218  0.88961138  0.97548891    -0.30400
H1295       H  0.17559912  0.95009003  0.99184692     0.10500
C1296       C  0.22405950  0.53192947  0.99825387     0.03700
C1297       C  0.23749389  0.55514953  0.00880474    -0.12700
C1298       C  0.26528467  0.55676576  0.01654690    -0.08400
C1299       C  0.27805106  0.53267729  0.01403278     0.07200
C1300       C  0.26490027  0.50989453  0.00339474    -0.13500
S1301       S  0.19009190  0.53220730  0.98800753    -0.30400
H1302       H  0.22750159  0.57338576  0.01061853     0.11400
S1303       S  0.31064909  0.52919210  0.02400407    -0.27500
H1304       H  0.27534035  0.49211900  0.00130500     0.08700
H1305       H  0.15356586  0.86815337  0.97036038     0.27100
H1306       H  0.18745284  0.55940081  0.99453280     0.21900
H1307       H  0.29703419  0.53449549  0.03557467     0.27200
H1308       H  0.28302104  0.55690505  0.97916264     0.16100
C1309       C  0.00751324  0.76798960  0.97276896    -0.11200
C1310       C  0.01418208  0.75124151  0.98307034     0.15300
C1311       C  0.04335543  0.74478442  0.98251059     0.02200
C1312       C  0.06562012  0.75573444  0.97172368    -0.15600
C1313       C  0.05977677  0.77359091  0.96154087    -0.10400
C1314       C  0.02977355  0.77897179  0.96196740     0.08900
C1315       C  0.49103620  0.73886996  0.99453837     0.10000
S1316       S  0.05393866  0.72329420  0.99528706    -0.24700
H1317       H  0.08869389  0.75169924  0.97156089     0.20200
S1318       S  0.01772909  0.79853444  0.94894883    -0.30400
H1319       H  0.48536634  0.77078920  0.97361655     0.10500
C1320       C  0.49288125  0.76226895  0.00430803     0.03700
C1321       C  0.46666874  0.74924811  0.01399742    -0.12700
C1322       C  0.43843270  0.71333304  0.01400019    -0.08400
C1323       C  0.43683409  0.69008699  0.00403714     0.07200
C1324       C  0.46349035  0.70300544  0.99460056    -0.13500
S1325       S  0.02637965  0.80888992  0.00342842    -0.30400
H1326       H  0.46800264  0.76716618  0.02153801     0.11400
S1327       S  0.40026491  0.64457810  0.00209076    -0.27500
H1328       H  0.46197164  0.68531662  0.98691846     0.08700
H1329       H  0.02945131  0.78418696  0.93918187     0.27100
H1330       H  0.01684570  0.81888925  0.01497992     0.21900
H1331       H  0.37301124  0.65335720  0.00400499     0.27200
H1332       H  0.04036587  0.73479031  0.00536281     0.16100
C1333       C  0.39030417  0.80858938  0.09501018    -0.11200
C1334       C  0.42259926  0.83913734  0.09148313     0.15300
C1335       C  0.43892837  0.84000723  0.07964054     0.02200
C1336       C  0.42238573  0.81016714  0.07153440    -0.15600
C1337       C  0.39005801  0.77932038  0.07505546    -0.10400
C1338       C  0.37352419  0.77892931  0.08686961     0.08900
C1339       C  0.43715545  0.87041792  0.10003458     0.10000
S1340       S  0.48030842  0.87843716  0.07420017    -0.24700
H1341       H  0.43523161  0.81081594  0.06250294     0.20200
S1342       S  0.33006884  0.74260915  0.09181656    -0.30400
H1343       H  0.37747181  0.80837382  0.10400233     0.10500
C1344       C  0.42875647  0.89767985  0.09813761     0.03700
C1345       C  0.44323872  0.92705133  0.10645783    -0.12700
C1346       C  0.46546153  0.92957236  0.11679501    -0.08400
C1347       C  0.47472844  0.90239860  0.11838321     0.07200
C1348       C  0.45967038  0.87276668  0.11016888    -0.13500
S1349       S  0.39939512  0.89492663  0.08517043    -0.30400
H1350       H  0.43705050  0.94810201  0.10490610     0.11400
S1351       S  0.00838021  0.90501452  0.12998269    -0.27500
H1352       H  0.46657353  0.85191129  0.11137772     0.08700
H1353       H  0.31455220  0.73623363  0.07949467     0.27100
H1354       H  0.39723900  0.92541954  0.08858049     0.21900
H1355       H  0.02610905  0.94213153  0.13195906     0.27200
H1356       H  0.49479310  0.89245543  0.08633652     0.16100
C1357       C  0.41227046  0.56896895  0.07713825    -0.11200
C1358       C  0.42003772  0.58037387  0.08994203     0.15300
C1359       C  0.41224256  0.60678111  0.09444426     0.02200
C1360       C  0.39607780  0.62010907  0.08617870    -0.15600
C1361       C  0.38699462  0.60781213  0.07348225    -0.10400
C1362       C  0.39523692  0.58167175  0.06896599     0.08900
C1363       C  0.43567518  0.56381627  0.09831030     0.10000
S1364       S  0.42198980  0.62533768  0.11047942    -0.24700
H1365       H  0.39058643  0.64050755  0.08978018     0.20200
S1366       S  0.38353028  0.56202219  0.05317737    -0.30400
H1367       H  0.41863795  0.54912380  0.07357994     0.10500
C1368       C  0.41683007  0.52665497  0.10090477     0.03700
C1369       C  0.43197357  0.51249602  0.10932702    -0.12700
C1370       C  0.46413892  0.53487714  0.11595493    -0.08400
C1371       C  0.48309246  0.57189822  0.11325179     0.07200
C1372       C  0.46938055  0.58574814  0.10409398    -0.13500
S1373       S  0.37238414  0.49745584  0.09427260    -0.30400
H1374       H  0.41725291  0.48427103  0.11158648     0.11400
S1375       S  0.02347615  0.60091194  0.12189464    -0.27500
H1376       H  0.48407559  0.61407699  0.10183004     0.08700
H1377       H  0.34785599  0.55552832  0.05377005     0.27100
H1378       H  0.36563336  0.46603801  0.10073501     0.21900
H1379       H  0.02726496  0.63333051  0.11732070     0.27200
H1380       H  0.42474508  0.59794805  0.11656803     0.16100
C1381       C  0.15988767  0.61042502  0.08156218    -0.11200
C1382       C  0.16149521  0.59378828  0.09289576     0.15300
C1383       C  0.19307711  0.59257901  0.09581870     0.02200
C1384       C  0.22182718  0.60698809  0.08716020    -0.15600
C1385       C  0.22019847  0.62301726  0.07561330    -0.10400
C1386       C  0.18900011  0.62550204  0.07299160     0.08900
C1387       C  0.12886612  0.57530310  0.10094896     0.10000
S1388       S  0.19820579  0.57206177  0.11018496    -0.24700
H1389       H  0.24551126  0.60497094  0.08939287     0.20200
S1390       S  0.18484727  0.64826086  0.05916573    -0.30400
H1391       H  0.13567368  0.61153075  0.07936719     0.10500
C1392       C  0.11936899  0.59396495  0.10972786     0.03700
C1393       C  0.08909259  0.57466994  0.11759686    -0.12700
C1394       C  0.06760689  0.53716980  0.11670605    -0.08400
C1395       C  0.07691364  0.51877032  0.10761733     0.07200
C1396       C  0.10759498  0.53801585  0.09995056    -0.13500
S1397       S  0.14589650  0.64221981  0.11093836    -0.30400
H1398       H  0.08191815  0.58892393  0.12437583     0.11400
S1399       S  0.05010304  0.97171513  0.10622857    -0.27500
H1400       H  0.11523358  0.52408808  0.09309889     0.08700
H1401       H  0.22064987  0.67700267  0.05982004     0.27100
H1402       H  0.12611677  0.64601050  0.12098753     0.21900
H1403       H  0.06648718  0.96907013  0.09490852     0.27200
H1404       H  0.17160108  0.57341103  0.11762898     0.16100
C1405       C  0.42113044  0.62530008  0.16248315    -0.11200
C1406       C  0.39852877  0.58937626  0.15867726     0.15300
C1407       C  0.36057752  0.57525957  0.15947573     0.02200
C1408       C  0.34675673  0.59795519  0.16247372    -0.15600
C1409       C  0.36923249  0.63295474  0.16703591    -0.10400
C1410       C  0.40711520  0.64652056  0.16717856     0.08900
C1411       C  0.41561304  0.56773974  0.15427149     0.10000
S1412       S  0.32821010  0.52778509  0.15895799    -0.24700
H1413       H  0.31771075  0.58663187  0.16292007     0.20200
S1414       S  0.43954940  0.68986663  0.17367655    -0.30400
H1415       H  0.45018259  0.63665900  0.16224468     0.10500
C1416       C  0.40492002  0.54698360  0.14293583     0.03700
C1417       C  0.42178638  0.52740443  0.13944690    -0.12700
C1418       C  0.45336146  0.53189772  0.14548352    -0.08400
C1419       C  0.46258615  0.55074788  0.15738623     0.07200
C1420       C  0.44374686  0.56827680  0.16153139    -0.13500
S1421       S  0.37183564  0.54713604  0.13213035    -0.30400
H1422       H  0.41013122  0.50853767  0.13173245     0.11400
S1423       S  0.49628361  0.55146466  0.16798452    -0.27500
H1424       H  0.45108622  0.58278277  0.17052903     0.08700
H1425       H  0.41600289  0.70277872  0.17632855     0.27100
H1426       H  0.37288717  0.52430306  0.12272893     0.21900
H1427       H  0.99642973  0.57341026  0.17706703     0.27200
H1428       H  0.35236472  0.51660129  0.16303244     0.16100
C1429       C  0.40782232  0.79093134  0.15427746    -0.11200
C1430       C  0.39607992  0.81442107  0.15859664     0.15300
C1431       C  0.36433098  0.79970554  0.16615696     0.02200
C1432       C  0.34668556  0.76324582  0.16969439    -0.15600
C1433       C  0.35987523  0.74023893  0.16620487    -0.10400
C1434       C  0.38991997  0.75430814  0.15781356     0.08900
C1435       C  0.41623705  0.85339720  0.15457150     0.10000
S1436       S  0.34542609  0.82614104  0.17208297    -0.24700
H1437       H  0.32328859  0.75316767  0.17586693     0.20200
S1438       S  0.40697360  0.72705140  0.15142715    -0.30400
H1439       H  0.43120407  0.80123309  0.14805772     0.10500
C1440       C  0.45175544  0.87785237  0.15885975     0.03700
C1441       C  0.46990396  0.91386854  0.15446119    -0.12700
C1442       C  0.45374390  0.92610087  0.14556435    -0.08400
C1443       C  0.41706376  0.90223442  0.14216803     0.07200
C1444       C  0.39925324  0.86643343  0.14643453    -0.13500
S1445       S  0.47424446  0.86306393  0.16983061    -0.30400
H1446       H  0.99801301  0.93200219  0.15755104     0.11400
S1447       S  0.39098198  0.91584001  0.13253247    -0.27500
H1448       H  0.37169628  0.84846837  0.14336586     0.08700
H1449       H  0.37497924  0.70500629  0.14459982     0.27100
H1450       H  0.00669878  0.89631637  0.17128450     0.21900
H1451       H  0.41037972  0.95194476  0.13625036     0.27200
H1452       H  0.37812584  0.85891243  0.17276414     0.16100
C1453       C  0.19578566  0.57031003  0.16387607    -0.11200
C1454       C  0.18572721  0.58817713  0.15507914     0.15300
C1455       C  0.21249655  0.62312960  0.15114459     0.02200
C1456       C  0.24728858  0.63982522  0.15679351    -0.15600
C1457       C  0.25650981  0.62247552  0.16626714    -0.10400
C1458       C  0.23073061  0.58612568  0.16901617     0.08900
C1459       C  0.14664688  0.56996494  0.15104518     0.10000
S1460       S  0.20401365  0.64818945  0.13918229    -0.24700
H1461       H  0.26668702  0.66727047  0.15424475     0.20200
S1462       S  0.24109608  0.55808227  0.17869727    -0.30400
H1463       H  0.17567651  0.54367406  0.16697818     0.10500
C1464       C  0.12841290  0.53467774  0.14601346     0.03700
C1465       C  0.09103257  0.51755910  0.14349783    -0.12700
C1466       C  0.07105015  0.53517510  0.14509349    -0.08400
C1467       C  0.08981517  0.57104156  0.14982443     0.07200
C1468       C  0.12659125  0.58714812  0.15317556    -0.13500
S1469       S  0.15310090  0.51229023  0.14166538    -0.30400
H1470       H  0.07775500  0.49108813  0.13925616     0.11400
S1471       S  0.07082871  0.60001407  0.15074546    -0.27500
H1472       H  0.14012615  0.61408000  0.15710745     0.08700
H1473       H  0.21249714  0.52482424  0.17450419     0.27100
H1474       H  0.12306318  0.47928931  0.13806586     0.21900
H1475       H  0.03792738  0.57693411  0.14486273     0.27200
H1476       H  0.17628559  0.61822262  0.13285211     0.16100
C1477       C  0.41384690  0.58981081  0.64264997    -0.11200
C1478       C  0.43411949  0.61767269  0.65138166     0.15300
C1479       C  0.44278617  0.65297722  0.64837610     0.02200
C1480       C  0.42961957  0.65934875  0.63701720    -0.15600
C1481       C  0.40727772  0.63116581  0.62866779    -0.10400
C1482       C  0.39985912  0.59607035  0.63142465     0.08900
C1483       C  0.44559937  0.60885717  0.66353447     0.10000
S1484       S  0.46904743  0.69072725  0.65883795    -0.24700
H1485       H  0.43520046  0.68635775  0.63501158     0.20200
S1486       S  0.37055744  0.55793845  0.62160913    -0.30400
H1487       H  0.40755657  0.56271732  0.64489696     0.10500
C1488       C  0.42064085  0.59027062  0.67342555     0.03700
C1489       C  0.43171278  0.57844314  0.68413133    -0.12700
C1490       C  0.46721012  0.58492308  0.68502084    -0.08400
C1491       C  0.49285136  0.60643779  0.67564420     0.07200
C1492       C  0.48172057  0.61790954  0.66496057    -0.13500
S1493       S  0.37438700  0.58031074  0.67211539    -0.30400
H1494       H  0.41207773  0.56172922  0.69126292     0.11400
S1495       S  0.03754624  0.62132250  0.67780376    -0.27500
H1496       H  0.50105424  0.63294418  0.65749266     0.08700
H1497       H  0.34427774  0.56804287  0.61975130     0.27100
H1498       H  0.36343624  0.56532148  0.68440849     0.21900
H1499       H  0.03766916  0.61692367  0.69117000     0.27200
H1500       H  0.45807585  0.67162948  0.67043222     0.16100
C1501       C  0.40129733  0.84536335  0.66738353    -0.11200
C1502       C  0.42092847  0.85673174  0.65588299     0.15300
C1503       C  0.45048669  0.89179627  0.65489759     0.02200
C1504       C  0.45980604  0.91472472  0.66540948    -0.15600
C1505       C  0.44064687  0.90348292  0.67705203    -0.10400
C1506       C  0.41067439  0.86843149  0.67795705     0.08900
C1507       C  0.41090846  0.83088755  0.64529118     0.10000
S1508       S  0.47777976  0.90884263  0.64062667    -0.24700
H1509       H  0.48302660  0.94148651  0.66456011     0.20200
S1510       S  0.38264865  0.85207662  0.69202090    -0.30400
H1511       H  0.37843619  0.81835098  0.66808276     0.10500
C1512       C  0.42022956  0.80392292  0.64579633     0.03700
C1513       C  0.40893856  0.77863577  0.63594769    -0.12700
C1514       C  0.38850120  0.77973250  0.62560012    -0.08400
C1515       C  0.38013289  0.80747669  0.62486756     0.07200
C1516       C  0.39177477  0.83307938  0.63470620    -0.13500
S1517       S  0.44663268  0.80182463  0.65897337    -0.30400
H1518       H  0.41545757  0.75738135  0.63639586     0.11400
S1519       S  0.35322193  0.81049046  0.61212656    -0.27500
H1520       H  0.38493964  0.85412515  0.63433660     0.08700
H1521       H  0.38422357  0.88480915  0.69476183     0.27100
H1522       H  0.44623680  0.77037694  0.65503884     0.21900
H1523       H  0.33043540  0.77331499  0.61051896     0.27200
H1524       H  0.47368412  0.87605490  0.63636299     0.16100
C1525       C  0.20772720  0.57276662  0.64854350    -0.11200
C1526       C  0.17965295  0.58053297  0.64840854     0.15300
C1527       C  0.17578015  0.59898179  0.63789298     0.02200
C1528       C  0.20054575  0.60984664  0.62781305    -0.15600
C1529       C  0.22962468  0.60349865  0.62820842    -0.10400
C1530       C  0.23257480  0.58375102  0.63851573     0.08900
C1531       C  0.15411886  0.56797674  0.65918228     0.10000
S1532       S  0.14048806  0.61024246  0.63693524    -0.24700
H1533       H  0.19830685  0.62516818  0.61998442     0.20200
S1534       S  0.26711510  0.57137745  0.63937217    -0.30400
H1535       H  0.21014013  0.55787820  0.65649027     0.10500
C1536       C  0.12011177  0.53684249  0.65805135     0.03700
C1537       C  0.09581820  0.52684491  0.66824535    -0.12700
C1538       C  0.10471930  0.54752445  0.67952954    -0.08400
C1539       C  0.13915856  0.57855286  0.68067528     0.07200
C1540       C  0.16375215  0.58807101  0.67056142    -0.13500
S1541       S  0.10766005  0.50998764  0.64360600    -0.30400
H1542       H  0.06950905  0.50292633  0.66737635     0.11400
S1543       S  0.15234488  0.60841177  0.69426323    -0.27500
H1544       H  0.18999934  0.61215821  0.67132139     0.08700
H1545       H  0.27035069  0.56897210  0.62603043     0.27100
H1546       H  0.07673292  0.97778515  0.64916415     0.21900
H1547       H  0.11888997  0.60709978  0.69534519     0.27200
H1548       H  0.13796635  0.61459543  0.65018029     0.16100
C1549       C  0.23628343  0.51450965  0.55334296    -0.11200
C1550       C  0.24285280  0.98582970  0.55685301     0.15300
C1551       C  0.26611902  0.99004731  0.56713104     0.02200
C1552       C  0.28420070  0.52259577  0.57300464    -0.15600
C1553       C  0.27699162  0.55045201  0.57050571    -0.10400
C1554       C  0.25292002  0.54632609  0.56042801     0.08900
C1555       C  0.22932583  0.95528462  0.54795408     0.10000
S1556       S  0.27636331  0.95571627  0.57169992    -0.24700
H1557       H  0.30251729  0.52538803  0.58069490     0.20200
S1558       S  0.24435423  0.58146790  0.55541545    -0.30400
H1559       H  0.21857817  0.51180160  0.54543681     0.10500
C1560       C  0.19436497  0.92562495  0.54897986     0.03700
C1561       C  0.18231689  0.89842358  0.53975380    -0.12700
C1562       C  0.20406381  0.90045551  0.52928203    -0.08400
C1563       C  0.24009115  0.92996362  0.52873088     0.07200
C1564       C  0.25182533  0.95704271  0.53795792    -0.13500
S1565       S  0.16532474  0.92230854  0.56210566    -0.30400
H1566       H  0.15556488  0.87547687  0.54072231     0.11400
S1567       S  0.27401584  0.93540130  0.51729061    -0.27500
H1568       H  0.27900724  0.97989167  0.53738211     0.08700
H1569       H  0.28041035  0.60923698  0.55688118     0.27100
H1570       H  0.13513896  0.88955145  0.55837624     0.21900
H1571       H  0.25436985  0.90238335  0.51132339     0.27200
H1572       H  0.24360601  0.92635383  0.56750969     0.16100
C1573       C  0.04977335  0.79840323  0.53892881    -0.11200
C1574       C  0.03708431  0.76291076  0.54273841     0.15300
C1575       C  0.05384869  0.74424075  0.53793272     0.02200
C1576       C  0.08301188  0.76158828  0.52950371    -0.15600
C1577       C  0.09645726  0.79747494  0.52596743    -0.10400
C1578       C  0.07953612  0.81618945  0.53081419     0.08900
C1579       C  0.00623513  0.74644221  0.55170127     0.10000
S1580       S  0.04015588  0.69879926  0.54247842    -0.24700
H1581       H  0.09601664  0.74726306  0.52599376     0.20200
S1582       S  0.09384444  0.86259416  0.52753232    -0.30400
H1583       H  0.03668701  0.81262947  0.54255087     0.10500
C1584       C  0.51026799  0.76027046  0.56365116     0.03700
C1585       C  0.47983738  0.74550130  0.57161090    -0.12700
C1586       C  0.44636695  0.71803328  0.56717823    -0.08400
C1587       C  0.44305360  0.70519722  0.55450350     0.07200
C1588       C  0.47340778  0.72001425  0.54654051    -0.13500
S1589       S  0.05284979  0.79330796  0.57055805    -0.30400
H1590       H  0.48209749  0.75503316  0.58137678     0.11400
S1591       S  0.40072818  0.67095199  0.54782528    -0.27500
H1592       H  0.47078664  0.71056535  0.53673878     0.08700
H1593       H  0.12392908  0.87065036  0.52001714     0.27100
H1594       H  0.54183386  0.79537661  0.58235894     0.21900
H1595       H  0.37859883  0.68031433  0.55485260     0.27200
H1596       H  0.02841393  0.70073447  0.55488677     0.16100
C1597       C  0.20955236  0.74650625  0.53330220    -0.11200
C1598       C  0.23173969  0.76685104  0.54349577     0.15300
C1599       C  0.23824467  0.80197803  0.54552425     0.02200
C1600       C  0.22303818  0.81614874  0.53715059    -0.15600
C1601       C  0.20108149  0.79604745  0.52678959    -0.10400
C1602       C  0.19340251  0.76024111  0.52516676     0.08900
C1603       C  0.24749481  0.75047274  0.55182660     0.10000
S1604       S  0.26575701  0.83020169  0.55851692    -0.24700
H1605       H  0.22879658  0.84343866  0.53864622     0.20200
S1606       S  0.16136368  0.72952741  0.51370279    -0.30400
H1607       H  0.20397733  0.71924167  0.53190506     0.10500
C1608       C  0.22653759  0.72483940  0.56116887     0.03700
C1609       C  0.24248431  0.70978625  0.56884374    -0.12700
C1610       C  0.27892821  0.71951281  0.56725204    -0.08400
C1611       C  0.29932953  0.74415713  0.55743564     0.07200
C1612       C  0.28360977  0.75983653  0.55004247    -0.13500
S1613       S  0.17978447  0.71216789  0.56355687    -0.30400
H1614       H  0.22668334  0.69091063  0.57629764     0.11400
S1615       S  0.34472916  0.75523119  0.55331589    -0.27500
H1616       H  0.29937676  0.77886346  0.54260323     0.08700
H1617       H  0.14025112  0.74594136  0.51354244     0.27100
H1618       H  0.17151235  0.68429676  0.57232223     0.21900
H1619       H  0.33843850  0.72012528  0.55498765     0.27200
H1620       H  0.25972347  0.80251200  0.56704184     0.16100
C1621       C  0.23690108  0.53809581  0.48257769    -0.11200
C1622       C  0.25618979  0.52299274  0.48803188     0.15300
C1623       C  0.29408310  0.54489022  0.48937124     0.02200
C1624       C  0.31164832  0.58049403  0.48491319    -0.15600
C1625       C  0.29252945  0.59561725  0.47925847    -0.10400
C1626       C  0.25448256  0.57373629  0.47814877     0.08900
C1627       C  0.23629403  0.98322385  0.49203536     0.10000
S1628       S  0.32166352  0.52857552  0.49632430    -0.24700
H1629       H  0.34074700  0.59542382  0.48495028     0.20200
S1630       S  0.22804302  0.58974200  0.47013487    -0.30400
H1631       H  0.20797732  0.52128612  0.48132716     0.10500
C1632       C  0.21075261  0.97097694  0.50204350     0.03700
C1633       C  0.19271038  0.93455013  0.50549778    -0.12700
C1634       C  0.20131387  0.90987970  0.49994337    -0.08400
C1635       C  0.22605144  0.92191133  0.48956584     0.07200
C1636       C  0.24283974  0.95821317  0.48566110    -0.13500
S1637       S  0.20293997  0.00215643  0.51115366    -0.30400
H1638       H  0.17306143  0.92568944  0.51313481     0.11400
S1639       S  0.23925914  0.89253294  0.48200155    -0.27500
H1640       H  0.26219752  0.96758170  0.47788981     0.08700
H1641       H  0.19380006  0.56126204  0.47356791     0.27100
H1642       H  0.18352738  0.97858758  0.52122131     0.21900
H1643       H  0.25989623  0.91604304  0.47209694     0.27200
H1644       H  0.29595343  0.50735305  0.50558537     0.16100
C1645       C  0.03990588  0.75088269  0.48898327    -0.11200
C1646       C  0.02052980  0.76911183  0.49061178     0.15300
C1647       C  0.03934260  0.80432426  0.49572902     0.02200
C1648       C  0.07670343  0.82091886  0.49813332    -0.15600
C1649       C  0.09542459  0.80187707  0.49747985    -0.10400
C1650       C  0.07650921  0.76634342  0.49272879     0.08900
C1651       C  0.48168059  0.75133961  0.48679119     0.10000
S1652       S  0.01678462  0.82806281  0.50091599    -0.24700
H1653       H  0.09067196  0.84822975  0.50158033     0.20200
S1654       S  0.09819967  0.73982418  0.49192593    -0.30400
H1655       H  0.02582344  0.72385673  0.48516259     0.10500
C1656       C  0.46711181  0.76544839  0.47786720     0.03700
C1657       C  0.43022723  0.74564459  0.47463014    -0.12700
C1658       C  0.40753653  0.71053297  0.47912950    -0.08400
C1659       C  0.42135257  0.69740480  0.48867986     0.07200
C1660       C  0.45808716  0.71775635  0.49235037    -0.13500
S1661       S  0.99538047  0.80647232  0.47001742    -0.30400
H1662       H  0.41927819  0.75681035  0.46789260     0.11400
S1663       S  0.39286880  0.65478773  0.49616537    -0.27500
H1664       H  0.46882269  0.70710486  0.49940672     0.08700
H1665       H  0.06894088  0.70877730  0.48663833     0.27100
H1666       H  0.46971133  0.80466766  0.46071134     0.21900
H1667       H  0.41784361  0.65726966  0.50548453     0.27200
H1668       H  0.48517468  0.79895148  0.50336527     0.16100
C1669       C  0.26598445  0.79861782  0.49674912    -0.11200
C1670       C  0.24884121  0.77044444  0.48800509     0.15300
C1671       C  0.21435684  0.76181706  0.48328035     0.02200
C1672       C  0.19695666  0.77989069  0.48809110    -0.15600
C1673       C  0.21273643  0.80596339  0.49779153    -0.10400
C1674       C  0.24880386  0.81669024  0.50155183     0.08900
C1675       C  0.26790633  0.75077198  0.48418378     0.10000
S1676       S  0.19077996  0.72723564  0.47145412    -0.24700
H1677       H  0.17017316  0.77219704  0.48468825     0.20200
S1678       S  0.27412471  0.85371157  0.51233212    -0.30400
H1679       H  0.29291757  0.80599866  0.49998678     0.10500
C1680       C  0.29756582  0.76583870  0.47569173     0.03700
C1681       C  0.31526641  0.74682825  0.47263526    -0.12700
C1682       C  0.30332103  0.71204862  0.47738529    -0.08400
C1683       C  0.27575627  0.69834106  0.48679087     0.07200
C1684       C  0.25817592  0.71768873  0.48998254    -0.13500
S1685       S  0.31336145  0.80869377  0.46805396    -0.30400
H1686       H  0.33730251  0.75843789  0.46581141     0.11400
S1687       S  0.26116022  0.65542205  0.49420111    -0.27500
H1688       H  0.23639663  0.70686508  0.49690105     0.08700
H1689       H  0.30614482  0.85208025  0.51273468     0.27100
H1690       H  0.27944466  0.80641204  0.46726801     0.21900
H1691       H  0.23541753  0.65583571  0.50247760     0.27200
H1692       H  0.22192238  0.73179080  0.46521089     0.16100
C1693       C  0.36959725  0.92680664  0.86794150    -0.11200
C1694       C  0.36720354  0.95227926  0.87551027     0.15300
C1695       C  0.39539012  0.98820715  0.87533269     0.02200
C1696       C  0.42551710  0.99777200  0.86758814    -0.15600
C1697       C  0.42844737  0.97230811  0.86005287    -0.10400
C1698       C  0.39992691  0.93608757  0.86040873     0.08900
C1699       C  0.33689579  0.93908270  0.88455564     0.10000
S1700       S  0.39501637  0.02282306  0.88496168    -0.24700
H1701       H  0.44733297  0.52662500  0.86715422     0.20200
S1702       S  0.40044881  0.89937472  0.85243787    -0.30400
H1703       H  0.34814328  0.89900882  0.86833784     0.10500
C1704       C  0.30293501  0.93368261  0.88078469     0.03700
C1705       C  0.27373114  0.91683300  0.88927469    -0.12700
C1706       C  0.27775817  0.90444677  0.90130546    -0.08400
C1707       C  0.31191683  0.90935807  0.90485876     0.07200
C1708       C  0.34119363  0.92734465  0.89657857    -0.13500
S1709       S  0.29685283  0.94764339  0.86508969    -0.30400
H1710       H  0.24758869  0.91291595  0.88648543     0.11400
S1711       S  0.31935566  0.89046474  0.91917561    -0.27500
H1712       H  0.36715745  0.93045026  0.89921036     0.08700
H1713       H  0.43593963  0.91959271  0.84843465     0.27100
H1714       H  0.25961229  0.93506817  0.86624951     0.21900
H1715       H  0.28694420  0.85742265  0.91806418     0.27200
H1716       H  0.35728069  0.00692361  0.88582766     0.16100
C1717       C  0.05220095  0.89648137  0.89580518    -0.11200
C1718       C  0.05768926  0.89568776  0.88258619     0.15300
C1719       C  0.07811878  0.88042274  0.87811179     0.02200
C1720       C  0.09497341  0.86910599  0.88693633    -0.15600
C1721       C  0.09102394  0.87136291  0.90027523    -0.10400
C1722       C  0.06748178  0.88345508  0.90463966     0.08900
C1723       C  0.04574261  0.91495706  0.87389892     0.10000
S1724       S  0.08423432  0.87523002  0.86126840    -0.24700
H1725       H  0.11173708  0.85884593  0.88325520     0.20200
S1726       S  0.05523208  0.88286068  0.92120300    -0.30400
H1727       H  0.03622710  0.90786585  0.89929959     0.10500
C1728       C  0.00922024  0.90567450  0.87278756     0.03700
C1729       C  0.00016525  0.92693055  0.86522912    -0.12700
C1730       C  0.02660696  0.95670869  0.85846999    -0.08400
C1731       C  0.06323092  0.96622000  0.85977503     0.07200
C1732       C  0.07228987  0.94510148  0.86737781    -0.13500
S1733       S  0.97405873  0.86652835  0.88078522    -0.30400
H1734       H  0.97233497  0.92041709  0.86463118     0.11400
S1735       S  0.09896626  0.50825313  0.85363533    -0.27500
H1736       H  0.10038725  0.95269804  0.86863590     0.08700
H1737       H  0.04697737  0.84719088  0.92312168     0.27100
H1738       H  0.94479795  0.87004732  0.87646112     0.21900
H1739       H  0.12787993  0.50244532  0.85632557     0.27200
H1740       H  0.05210910  0.87345811  0.85705587     0.16100
C1741       C  0.09754141  0.62447517  0.86880265    -0.11200
C1742       C  0.07929790  0.62610528  0.87967411     0.15300
C1743       C  0.04501296  0.59696236  0.88264738     0.02200
C1744       C  0.02902906  0.56757308  0.87437820    -0.15600
C1745       C  0.04551966  0.56701683  0.86277219    -0.10400
C1746       C  0.08157298  0.59504152  0.86045715     0.08900
C1747       C  0.09562188  0.65931247  0.88733298     0.10000
S1748       S  0.51788435  0.59519070  0.89602459    -0.24700
H1749       H  0.50131865  0.54582738  0.87604749     0.20200
S1750       S  0.11022090  0.59530151  0.84769982    -0.30400
H1751       H  0.12444532  0.64648294  0.86678213     0.10500
C1752       C  0.11291131  0.66215143  0.89912347     0.03700
C1753       C  0.12510065  0.69336089  0.90651590    -0.12700
C1754       C  0.12009076  0.72159899  0.90233206    -0.08400
C1755       C  0.10239640  0.71829783  0.89050055     0.07200
C1756       C  0.09110560  0.68758253  0.88303889    -0.13500
S1757       S  0.11942638  0.62609457  0.90468382    -0.30400
H1758       H  0.13876828  0.69591019  0.91553791     0.11400
S1759       S  0.09093847  0.75088595  0.88478518    -0.27500
H1760       H  0.07710518  0.68490264  0.87406676     0.08700
H1761       H  0.08794869  0.56024724  0.84335514     0.27100
H1762       H  0.13515544  0.64165031  0.91655875     0.21900
H1763       H  0.08131413  0.75773435  0.89692636     0.27200
H1764       H  0.03109506  0.63289134  0.89672318     0.16100
C1765       C  0.29097279  0.87790542  0.77368590    -0.11200
C1766       C  0.29053022  0.89932626  0.76367409     0.15300
C1767       C  0.26029250  0.90380061  0.76206126     0.02200
C1768       C  0.23175124  0.88773502  0.77075637    -0.15600
C1769       C  0.23250127  0.86718400  0.78110306    -0.10400
C1770       C  0.26204283  0.86115529  0.78223315     0.08900
C1771       C  0.32178770  0.91600858  0.75495626     0.10000
S1772       S  0.25669422  0.93019290  0.74932519    -0.24700
H1773       H  0.20901147  0.89206154  0.76961129     0.20200
S1774       S  0.26383301  0.83080730  0.79365104    -0.30400
H1775       H  0.31382721  0.87370475  0.77469481     0.10500
C1776       C  0.34853196  0.95233256  0.75615234     0.03700
C1777       C  0.37816791  0.96672275  0.74780012    -0.12700
C1778       C  0.38154639  0.94550961  0.73822580    -0.08400
C1779       C  0.35369897  0.90932025  0.73680890     0.07200
C1780       C  0.32462192  0.89487034  0.74534169    -0.13500
S1781       S  0.34539111  0.97996742  0.76855827    -0.30400
H1782       H  0.39926322  0.99441096  0.74895636     0.11400
S1783       S  0.35252133  0.88055851  0.72402767    -0.27500
H1784       H  0.30355504  0.86706518  0.74432503     0.08700
H1785       H  0.22641735  0.80982480  0.79498184     0.27100
H1786       H  0.38886864  0.50541864  0.77035839     0.21900
H1787       H  0.36519713  0.90763772  0.71464779     0.27200
H1788       H  0.27809146  0.92491500  0.74035798     0.16100
C1789       C  0.11616604  0.91297895  0.77228166    -0.11200
C1790       C  0.09515278  0.89030840  0.76234796     0.15300
C1791       C  0.09207343  0.85639894  0.76106414     0.02200
C1792       C  0.10891628  0.84549828  0.77003882    -0.15600
C1793       C  0.12864958  0.86713273  0.78053664    -0.10400
C1794       C  0.13361185  0.90249065  0.78119871     0.08900
C1795       C  0.07797517  0.90365807  0.75329537     0.10000
S1796       S  0.06668809  0.82544755  0.74834430    -0.24700
H1797       H  0.10658177  0.81963835  0.76866192     0.20200
S1798       S  0.16345812  0.93786633  0.79197040    -0.30400
H1799       H  0.11953589  0.93962314  0.77293916     0.10500
C1800       C  0.04187380  0.89536444  0.75480048     0.03700
C1801       C  0.02757102  0.91074195  0.74646093    -0.12700
C1802       C  0.04880562  0.93436495  0.73667870    -0.08400
C1803       C  0.08452871  0.94116429  0.73487891     0.07200
C1804       C  0.09884937  0.92629192  0.74332676    -0.13500
S1805       S  0.01463403  0.86635851  0.76765530    -0.30400
H1806       H  0.00021842  0.90540276  0.74785170     0.11400
S1807       S  0.11291129  0.96763205  0.72179363    -0.27500
H1808       H  0.12646175  0.93217690  0.74207880     0.08700
H1809       H  0.17745423  0.91967744  0.79852262     0.27100
H1810       H  0.48535726  0.87483823  0.76701314     0.21900
H1811       H  0.08452572  0.95624008  0.71286139     0.27200
H1812       H  0.07051484  0.85111092  0.73923768     0.16100
C1813       C  0.11438461  0.66613131  0.75033480    -0.11200
C1814       C  0.09589915  0.66410315  0.76170673     0.15300
C1815       C  0.06234001  0.63290910  0.76419096     0.02200
C1816       C  0.04723284  0.60559236  0.75499911    -0.15600
C1817       C  0.06514858  0.60805030  0.74344996    -0.10400
C1818       C  0.09940292  0.63856666  0.74118637     0.08900
C1819       C  0.10910846  0.69687817  0.76967880     0.10000
S1820       S  0.03705010  0.62648944  0.77878219    -0.24700
H1821       H  0.02118684  0.58207835  0.75689492     0.20200
S1822       S  0.12408088  0.64527203  0.72646129    -0.30400
H1823       H  0.13976343  0.69024816  0.74825100     0.10500
C1824       C  0.14246769  0.71289388  0.77620860     0.03700
C1825       C  0.15366377  0.74477227  0.78316398    -0.12700
C1826       C  0.13181573  0.76053876  0.78403485    -0.08400
C1827       C  0.09745336  0.74298096  0.77795037     0.07200
C1828       C  0.08722669  0.71232158  0.77060244    -0.13500
S1829       S  0.17016805  0.69219417  0.77604227    -0.30400
H1830       H  0.17939839  0.75725333  0.78803784     0.11400
S1831       S  0.06342667  0.75541712  0.77967955    -0.27500
H1832       H  0.06129489  0.69972002  0.76573782     0.08700
H1833       H  0.09346864  0.63015119  0.71843733     0.27100
H1834       H  0.19586227  0.71536991  0.78503638     0.21900
H1835       H  0.08365844  0.78330074  0.78805179     0.27200
H1836       H  0.06634894  0.65055533  0.78642281     0.16100
C1837       C  0.07392344  0.88258613  0.80985082    -0.11200
C1838       C  0.09208048  0.91051640  0.81866461     0.15300
C1839       C  0.12448734  0.91497901  0.82421738     0.02200
C1840       C  0.13944380  0.89405069  0.81975551    -0.15600
C1841       C  0.12194641  0.86739988  0.81024965    -0.10400
C1842       C  0.08713757  0.86010805  0.80629009     0.08900
C1843       C  0.07309677  0.93042414  0.82268536     0.10000
S1844       S  0.14773758  0.94630282  0.83704885    -0.24100
H1845       H  0.16554725  0.89962265  0.82334374     0.20200
S1846       S  0.05594553  0.82038642  0.79783754    -0.30400
H1847       H  0.04797884  0.87708586  0.80608319     0.10500
C1848       C  0.08698882  0.96762924  0.82075965     0.03700
C1849       C  0.06620158  0.98354476  0.82443358    -0.12700
C1850       C  0.03144183  0.96294457  0.82976163    -0.08400
C1851       C  0.01658202  0.92530912  0.83032461     0.07200
C1852       C  0.03764094  0.90987842  0.82720255    -0.13500
S1853       S  0.13086760  0.99479584  0.81358792    -0.30400
H1854       H  0.07802142  0.51293829  0.82464602     0.11400
S1855       S  0.47074057  0.89686428  0.83432081    -0.27500
H1856       H  0.02609046  0.88113222  0.82807746     0.08700
H1857       H  0.06291273  0.79877355  0.80607633     0.27100
H1858       H  0.13101433  0.52829572  0.81471689     0.21900
H1859       H  0.46984862  0.86409613  0.83243970     0.27200
H1860       H  0.11703495  0.94577481  0.84211734     0.16100
C1861       C  0.36592057  0.96759232  0.82929487    -0.11200
C1862       C  0.35100447  0.93330357  0.82383117     0.15300
C1863       C  0.37460806  0.91981899  0.82127633     0.02200
C1864       C  0.41126226  0.93946693  0.82512094    -0.15600
C1865       C  0.42557395  0.97287135  0.83133752    -0.10400
C1866       C  0.40258819  0.98754341  0.83270422     0.08900
C1867       C  0.31187674  0.91454914  0.81977631     0.10000
S1868       S  0.35960354  0.87771974  0.81319497    -0.24700
H1869       H  0.42832992  0.92784768  0.82372291     0.20200
S1870       S  0.41704839  0.53141557  0.83854589    -0.30400
H1871       H  0.34887535  0.97928975  0.83072107     0.10500
C1872       C  0.28458089  0.88246044  0.82538978     0.03700
C1873       C  0.24860360  0.86602065  0.82064671    -0.12700
C1874       C  0.23899437  0.88060211  0.81027881    -0.08400
C1875       C  0.26594994  0.91534459  0.80591567     0.07200
C1876       C  0.30156411  0.93100537  0.81046614    -0.13500
S1877       S  0.29540344  0.86284250  0.83873259    -0.30400
H1878       H  0.22815757  0.84115510  0.82479129     0.11400
S1879       S  0.25800657  0.94385616  0.79536415    -0.27500
H1880       H  0.32177980  0.95675891  0.80665714     0.08700
H1881       H  0.44986125  0.54559629  0.83179418     0.27100
H1882       H  0.26054032  0.83305423  0.84030631     0.21900
H1883       H  0.22307313  0.91909501  0.79182838     0.27200
H1884       H  0.33535525  0.88105601  0.80500242     0.16100
C1885       C  0.12974566  0.70945732  0.82067129    -0.11200
C1886       C  0.09202524  0.68812129  0.81939977     0.15300
C1887       C  0.07275797  0.70460651  0.81476024     0.02200
C1888       C  0.09116980  0.74129575  0.81167011    -0.15600
C1889       C  0.12906281  0.76239195  0.81227397    -0.10400
C1890       C  0.14839722  0.74590914  0.81690113     0.08900
C1891       C  0.07294447  0.64989071  0.82405256     0.10000
S1892       S  0.02475264  0.67974166  0.81175077    -0.24700
H1893       H  0.07581695  0.75282198  0.80783230     0.20200
S1894       S  0.19694280  0.77048366  0.81757431    -0.30400
H1895       H  0.14462997  0.69729945  0.82449315     0.10500
C1896       C  0.07747385  0.62243081  0.81846384     0.03700
C1897       C  0.05821581  0.58698452  0.82337533    -0.12700
C1898       C  0.03526102  0.57828620  0.83410450    -0.08400
C1899       C  0.02989291  0.60607579  0.83926683     0.07200
C1900       C  0.04896278  0.64094336  0.83431174    -0.13500
S1901       S  0.10797636  0.63250957  0.80514312    -0.30400
H1902       H  0.06259343  0.56636369  0.81928817     0.11400
S1903       S  0.99890491  0.60056269  0.85197171    -0.27500
H1904       H  0.04495895  0.66168835  0.83855279     0.08700
H1905       H  0.20171758  0.74142682  0.82080274     0.27100
H1906       H  0.10246830  0.59767821  0.80357061     0.21900
H1907       H  0.98116915  0.56338669  0.85247085     0.27200
H1908       H  0.02328693  0.64731238  0.80853688     0.16100
C1909       C  0.43143944  0.82886294  0.23089196    -0.11200
C1910       C  0.41627071  0.83133897  0.21928624     0.15300
C1911       C  0.41401974  0.86232561  0.21671349     0.02200
C1912       C  0.42654897  0.88991151  0.22582071    -0.15600
C1913       C  0.44192192  0.88762048  0.23743452    -0.10400
C1914       C  0.44397259  0.85643272  0.24002012     0.08900
C1915       C  0.39923230  0.79957088  0.21076607     0.10000
S1916       S  0.39525013  0.86811804  0.20203513    -0.24700
H1917       H  0.42503640  0.91375164  0.22368862     0.20200
S1918       S  0.96897773  0.85321487  0.25286817    -0.30400
H1919       H  0.43235551  0.80470891  0.23303295     0.10500
C1920       C  0.41938303  0.79181106  0.20196783     0.03700
C1921       C  0.40152378  0.76135667  0.19405593    -0.12700
C1922       C  0.36396061  0.73831082  0.19490859    -0.08400
C1923       C  0.34413533  0.74617794  0.20388725     0.07200
C1924       C  0.36188598  0.77658390  0.21166123    -0.13500
S1925       S  0.46771668  0.82064599  0.20088203    -0.30400
H1926       H  0.41682884  0.75512606  0.18731234     0.11400
S1927       S  0.29603830  0.71922530  0.20566049    -0.27500
H1928       H  0.34641399  0.78255268  0.21844705     0.08700
H1929       H  0.95328668  0.86732304  0.26118681     0.27100
H1930       H  0.47311497  0.80216159  0.19078104     0.21900
H1931       H  0.29039780  0.71316854  0.19245753     0.27200
H1932       H  0.40559727  0.84814139  0.19424779     0.16100
C1933       C  0.37918493  0.59066125  0.20498019    -0.11200
C1934       C  0.40766630  0.61543236  0.21259907     0.15300
C1935       C  0.41802856  0.65210425  0.21185565     0.02200
C1936       C  0.39950625  0.66294612  0.20348152    -0.15600
C1937       C  0.37040369  0.63792761  0.19596245    -0.10400
C1938       C  0.35980698  0.60111651  0.19710225     0.08900
C1939       C  0.42428246  0.60103592  0.22151990     0.10000
S1940       S  0.45412845  0.68614317  0.22139530    -0.24700
H1941       H  0.40765943  0.69113173  0.20289961     0.20200
S1942       S  0.31970908  0.56517963  0.19015677    -0.30400
H1943       H  0.37076938  0.56241032  0.20569567     0.10500
C1944       C  0.40434742  0.57909810  0.23191315     0.03700
C1945       C  0.41865090  0.56172690  0.23916777    -0.12700
C1946       C  0.45260065  0.56585748  0.23630655    -0.08400
C1947       C  0.47264018  0.58805394  0.22591712     0.07200
C1948       C  0.45838418  0.60557442  0.21870585    -0.13500
S1949       S  0.36070901  0.57347164  0.23600369    -0.30400
H1950       H  0.40350244  0.54510952  0.24720945     0.11400
S1951       S  0.51537635  0.59334535  0.22087604    -0.27500
H1952       H  0.47330209  0.62170219  0.21052926     0.08700
H1953       H  0.30359199  0.58611621  0.18951590     0.27100
H1954       H  0.35225266  0.54788850  0.24573679     0.21900
H1955       H  0.50659733  0.55797877  0.22375104     0.27200
H1956       H  0.45068845  0.66389702  0.23178594     0.16100
C1957       C  0.14750024  0.54232142  0.22204119    -0.11200
C1958       C  0.17507039  0.57789457  0.22387770     0.15300
C1959       C  0.17303111  0.59787618  0.23424466     0.02200
C1960       C  0.14289336  0.58218803  0.24230320    -0.15600
C1961       C  0.11499504  0.54665737  0.24042150    -0.10400
C1962       C  0.11766305  0.52642383  0.23024592     0.08900
C1963       C  0.20426821  0.59422160  0.21430543     0.10000
S1964       S  0.20711551  0.64386844  0.23737449    -0.24700
H1965       H  0.14101367  0.59797642  0.25005006     0.20200
S1966       S  0.08213252  0.48169153  0.22646938    -0.30400
H1967       H  0.14886140  0.52714813  0.21397609     0.10500
C1968       C  0.23510046  0.59070688  0.21521690     0.03700
C1969       C  0.26283076  0.60800898  0.20623604    -0.12700
C1970       C  0.26014844  0.62810188  0.19608757    -0.08400
C1971       C  0.22893359  0.63167078  0.19527600     0.07200
C1972       C  0.20134012  0.61443706  0.20437221    -0.13500
S1973       S  0.23963534  0.56520691  0.22809537    -0.30400
H1974       H  0.28690343  0.60596737  0.20719327     0.11400
S1975       S  0.22472315  0.66042978  0.18365174    -0.27500
H1976       H  0.17762605  0.61734375  0.20399064     0.08700
H1977       H  0.08600269  0.46741929  0.23809919     0.27100
H1978       H  0.27271534  0.56881496  0.22408676     0.21900
H1979       H  0.18856509  0.65031447  0.18623918     0.27200
H1980       H  0.23645380  0.64192699  0.23224817     0.16100
C1981       C  0.04756595  0.86321972  0.33744471    -0.11200
C1982       C  0.06144810  0.89990297  0.33525159     0.15300
C1983       C  0.08677523  0.92512170  0.34400224     0.02200
C1984       C  0.10039221  0.91328600  0.35393008    -0.15600
C1985       C  0.08866312  0.87671775  0.35543598    -0.10400
C1986       C  0.06067257  0.85138986  0.34748031     0.08900
C1987       C  0.05076433  0.91083460  0.32330371     0.10000
S1988       S  0.10415488  0.97273533  0.34258055    -0.24700
H1989       H  0.12184531  0.93286609  0.35999226     0.20200
S1990       S  0.04185690  0.80363381  0.34930934    -0.30400
H1991       H  0.02744101  0.84371552  0.33097195     0.10500
C1992       C  0.07495203  0.92611414  0.31293069     0.03700
C1993       C  0.06395914  0.93683245  0.30189589    -0.12700
C1994       C  0.02916341  0.93231481  0.30099823    -0.08400
C1995       C  0.00429137  0.91481005  0.31109855     0.07200
C1996       C  0.01542755  0.90453983  0.32213262    -0.13500
S1997       S  0.11988595  0.93215679  0.31377574    -0.30400
H1998       H  0.08303153  0.95026450  0.29420088     0.11400
S1999       S  0.95789177  0.90462538  0.31047606    -0.27500
H2000       H  0.99646505  0.89174519  0.32992400     0.08700
H2001       H  0.04971625  0.80474972  0.36246637     0.27100
H2002       H  0.13016512  0.94460496  0.30115573     0.21900
H2003       H  0.95441480  0.90028407  0.29707781     0.27200
H2004       H  0.07377380  0.97010326  0.33632084     0.16100
C2005       C  0.08432865  0.66687367  0.30574138    -0.11200
C2006       C  0.10296153  0.66064057  0.31556673     0.15300
C2007       C  0.10631998  0.62978129  0.31521625     0.02200
C2008       C  0.08930620  0.60481280  0.30541712    -0.15600
C2009       C  0.06925147  0.61014164  0.29588163    -0.10400
C2010       C  0.06707784  0.64175239  0.29595939     0.08900
C2011       C  0.11473091  0.68469760  0.32673612     0.10000
S2012       S  0.13076010  0.62018352  0.32719928    -0.24700
H2013       H  0.09109318  0.58056891  0.30537007     0.20200
S2014       S  0.04023176  0.65007908  0.28463292    -0.30400
H2015       H  0.08149213  0.69050397  0.30612280     0.10500
C2016       C  0.14429897  0.71971436  0.32594767     0.03700
C2017       C  0.15159947  0.74318944  0.33623127    -0.12700
C2018       C  0.12966561  0.73241441  0.34724497    -0.08400
C2019       C  0.10064564  0.69678141  0.34813855     0.07200
C2020       C  0.09380810  0.67318314  0.33792432    -0.13500
S2021       S  0.17248532  0.73443683  0.31181695    -0.30400
H2022       H  0.17421571  0.77032728  0.33561316     0.11400
S2023       S  0.06969116  0.68061005  0.36146162    -0.27500
H2024       H  0.07085798  0.64616633  0.33840891     0.08700
H2025       H  0.01147874  0.61443077  0.28420493     0.27100
H2026       H  0.19624251  0.76965802  0.31602567     0.21900
H2027       H  0.06670071  0.71161693  0.36241097     0.27200
H2028       H  0.15500526  0.65605820  0.33053595     0.16100
C2029       C  0.28774182  0.93942486  0.32731343    -0.11200
C2030       C  0.31394206  0.92931480  0.32572597     0.15300
C2031       C  0.31907742  0.90936458  0.33540748     0.02200
C2032       C  0.29594832  0.89752936  0.34596851    -0.15600
C2033       C  0.26819091  0.90567850  0.34715963    -0.10400
C2034       C  0.26481271  0.92790023  0.33796739     0.08900
C2035       C  0.33580888  0.94046350  0.31394567     0.10000
S2036       S  0.35387193  0.89732198  0.33471881    -0.24700
H2037       H  0.29872182  0.88062321  0.35303343     0.20200
S2038       S  0.23177994  0.94210054  0.33983755    -0.30400
H2039       H  0.28491825  0.95580048  0.32004857     0.10500
C2040       C  0.33247491  0.91547416  0.30451079     0.03700
C2041       C  0.35689252  0.92707623  0.29423589    -0.12700
C2042       C  0.38411731  0.96313297  0.29327494    -0.08400
C2043       C  0.38503064  0.98849786  0.30210577     0.07200
C2044       C  0.36108770  0.97685202  0.31239447    -0.13500
S2045       S  0.29791082  0.86882030  0.30578024    -0.30400
H2046       H  0.35627972  0.90776358  0.28743422     0.11400
S2047       S  0.41621260  0.53721150  0.29926865    -0.27500
H2048       H  0.36288249  0.99614058  0.31947066     0.08700
H2049       H  0.23861719  0.96060058  0.32813358     0.27100
H2050       H  0.30686008  0.85716968  0.29448043     0.21900
H2051       H  0.41989944  0.53606005  0.28589563     0.27200
H2052       H  0.37862297  0.92692917  0.32743079     0.16100
C2053       C  0.28132566  0.49991590  0.41810485    -0.11200
C2054       C  0.26088003  0.50043270  0.42849345     0.15300
C2055       C  0.22329911  0.96978095  0.43040527     0.02200
C2056       C  0.20811534  0.94252103  0.42121456    -0.15600
C2057       C  0.22855161  0.94167606  0.41081127    -0.10400
C2058       C  0.26543913  0.96865228  0.40984790     0.08900
C2059       C  0.27538841  0.53329784  0.43626815     0.10000
S2060       S  0.19506075  0.96848467  0.44348459    -0.24700
H2061       H  0.18013149  0.92161409  0.42226645     0.20200
S2062       S  0.29419887  0.97146638  0.39672839    -0.30400
H2063       H  0.30859721  0.52208307  0.41674576     0.10500
C2064       C  0.29977567  0.54037510  0.44638868     0.03700
C2065       C  0.31249055  0.57216000  0.45341608    -0.12700
C2066       C  0.30046515  0.59647647  0.45078201    -0.08400
C2067       C  0.27634677  0.58936683  0.44044628     0.07200
C2068       C  0.26410376  0.55783303  0.43333134    -0.13500
S2069       S  0.31393389  0.50859204  0.45052813    -0.30400
H2070       H  0.33212628  0.57819320  0.46093350     0.11400
S2071       S  0.25959980  0.61912862  0.43643878    -0.27500
H2072       H  0.24521074  0.55185878  0.42550234     0.08700
H2073       H  0.26763093  0.96275146  0.38723486     0.27100
H2074       H  0.33273402  0.52599400  0.46179619     0.21900
H2075       H  0.24368405  0.60326548  0.42462117     0.27200
H2076       H  0.22598088  0.48894507  0.45225484     0.16100
C2077       C  0.49749545  0.72297245  0.41497273    -0.11200
C2078       C  0.50045697  0.73807626  0.42715302     0.15300
C2079       C  0.03260747  0.76749768  0.43068086     0.02200
C2080       C  0.06089657  0.78329846  0.42187627    -0.15600
C2081       C  0.05776225  0.76852035  0.40963567    -0.10400
C2082       C  0.02559048  0.73683367  0.40621897     0.08900
C2083       C  0.46771158  0.72422589  0.43521305     0.10000
S2084       S  0.04029494  0.78733545  0.44641894    -0.24700
H2085       H  0.08584498  0.80707095  0.42467276     0.20200
S2086       S  0.01872427  0.71586669  0.39069204    -0.30400
H2087       H  0.47215102  0.69983774  0.41207234     0.10500
C2088       C  0.44894718  0.74320750  0.43632154     0.03700
C2089       C  0.41837616  0.72966237  0.44416554    -0.12700
C2090       C  0.40576369  0.69738586  0.45087651    -0.08400
C2091       C  0.42449671  0.67815011  0.44966436     0.07200
C2092       C  0.45511121  0.69176190  0.44178439    -0.13500
S2093       S  0.46361716  0.78444766  0.42758929    -0.30400
H2094       H  0.40480155  0.74500510  0.44540999     0.11400
S2095       S  0.41095770  0.63589068  0.45749162    -0.27500
H2096       H  0.46949110  0.67708265  0.44084050     0.08700
H2097       H  0.03800984  0.74802973  0.38376873     0.27100
H2098       H  0.43555428  0.79031114  0.43155785     0.21900
H2099       H  0.38647632  0.63595269  0.46634060     0.27200
H2100       H  0.01531885  0.75601224  0.45290142     0.16100
C2101       C  0.27487599  0.78733655  0.42190021    -0.11200
C2102       C  0.26330988  0.75072155  0.42087204     0.15300
C2103       C  0.23635213  0.72943875  0.41184588     0.02200
C2104       C  0.22088573  0.74502918  0.40429122    -0.15600
C2105       C  0.23208663  0.78164522  0.40538776    -0.10400
C2106       C  0.25941821  0.80297771  0.41436537     0.08900
C2107       C  0.27731307  0.73484851  0.43017134     0.10000
S2108       S  0.22034058  0.68225689  0.40960071    -0.24700
H2109       H  0.20007729  0.72845011  0.39742341     0.20200
S2110       S  0.27394575  0.84951210  0.41739572    -0.30400
H2111       H  0.29508391  0.80351619  0.42900969     0.10500
C2112       C  0.31284354  0.74113712  0.42946882     0.03700
C2113       C  0.32452586  0.72504641  0.43847911    -0.12700
C2114       C  0.30181112  0.70313606  0.44831267    -0.08400
C2115       C  0.26571438  0.69628401  0.44874214     0.07200
C2116       C  0.25420129  0.71265088  0.43978459    -0.13500
S2117       S  0.34285612  0.76874562  0.41687747    -0.30400
H2118       H  0.35177792  0.72948124  0.43777972     0.11400
S2119       S  0.23298446  0.66474240  0.45982397    -0.27500
H2120       H  0.22672724  0.70774654  0.44007775     0.08700
H2121       H  0.23900163  0.84496801  0.41678838     0.27100
H2122       H  0.37230648  0.76439303  0.42024210     0.21900
H2123       H  0.20303415  0.66722942  0.45564665     0.27200
H2124       H  0.25257635  0.68344489  0.41327594     0.16100
Zn2125     Zn  0.71802873  0.36020442  0.38382436     1.49700
Zn2126     Zn  0.64503933  0.28460040  0.38422173     1.49400
Zn2127     Zn  0.64171778  0.35778120  0.38763325     1.49100
Zn2128     Zn  0.66224115  0.33845292  0.36145945     1.49500
O2129       O  0.66665690  0.33520870  0.37960106    -1.84000
O2130       O  0.73229452  0.32749279  0.39254347    -0.74600
O2131       O  0.60058065  0.26936449  0.39497253    -0.74400
O2132       O  0.67691215  0.39912854  0.39886125    -0.73900
O2133       O  0.68011045  0.27652977  0.39464761    -0.74600
O2134       O  0.72857701  0.39904158  0.39647482    -0.74200
O2135       O  0.60223209  0.32109383  0.39891789    -0.74800
O2136       O  0.62516643  0.35072200  0.35668413    -0.74200
O2137       O  0.63254400  0.25294315  0.36851543    -0.75000
O2138       O  0.61716530  0.37441232  0.37441847    -0.74300
O2139       O  0.64918008  0.29302955  0.35288617    -0.74800
O2140       O  0.70806688  0.37443766  0.35360813    -0.74700
O2141       O  0.74947869  0.38350916  0.36825391    -0.74500
C2142       C  0.71387393  0.29569045  0.39686498     0.77300
C2143       C  0.58815095  0.28733493  0.40048290     0.77800
C2144       C  0.71034544  0.41187178  0.40147156     0.76700
C2145       C  0.61118960  0.36660713  0.36251743     0.77100
C2146       C  0.63702662  0.26107131  0.35666209     0.78200
C2147       C  0.74082660  0.38836877  0.35704453     0.77300
Zn2148     Zn  0.99512275  0.50201734  0.28487563     1.49700
Zn2149     Zn  0.94946475  0.47820377  0.25941204     1.49400
Zn2150     Zn  0.52792450  0.04888508  0.26033870     1.49100
Zn2151     Zn  0.52192581  0.47242416  0.26208889     1.49500
O2152       O  0.99838359  0.50010486  0.26658890    -1.84000
O2153       O  0.94669874  0.49065561  0.29030154    -0.74600
O2154       O  0.94591394  0.01489916  0.24780880    -0.74400
O2155       O  0.54957785  0.08484876  0.27482599    -0.73900
O2156       O  0.91154069  0.46323571  0.27348433    -0.74600
O2157       O  0.52834547  0.04918760  0.29177999    -0.74200
O2158       O  0.00002870  0.06424441  0.24863829    -0.74800
O2159       O  0.56719188  0.00042794  0.25282051    -0.74200
O2160       O  0.93941595  0.43528552  0.24839761    -0.75000
O2161       O  0.56936276  0.05274580  0.25019371    -0.74300
O2162       O  0.98828691  0.43015780  0.25122788    -0.74800
O2163       O  0.53210685  0.45131979  0.27821447    -0.74700
O2164       O  0.50584763  0.46729811  0.29307466    -0.74500
C2165       C  0.91572189  0.47332259  0.28516602     0.77300
C2166       C  0.96746933  0.04742699  0.24465296     0.77800
C2167       C  0.54759460  0.07998186  0.28689581     0.76700
C2168       C  0.58211325  0.03205123  0.24820542     0.77100
C2169       C  0.95728077  0.41936274  0.24622585     0.78200
C2170       C  0.52187553  0.45054167  0.28976802     0.77300
C2171       C  0.66477532  0.33691154  0.80955645     0.45600
H2172       H  0.66496685  0.33851277  0.82018316    -0.03400
C2173       C  0.66393964  0.33251092  0.78465590     0.45700
H2174       H  0.66386238  0.33023420  0.77404531    -0.03400
C2175       C  0.64268324  0.35277813  0.80296160    -0.17100
C2176       C  0.70358629  0.35790090  0.80331240    -0.16900
C2177       C  0.64721454  0.29738115  0.80430199    -0.17200
C2178       C  0.64440027  0.35206647  0.78968660    -0.17200
C2179       C  0.70212979  0.35342201  0.79015282    -0.16800
C2180       C  0.64663181  0.29583454  0.79117291    -0.17100
C2181       C  0.99939028  0.49877360  0.85807660     0.45600
H2182       H  0.99921823  0.49553020  0.86864444    -0.03400
C2183       C  0.99905514  0.50473596  0.83321548     0.45700
H2184       H  0.99888868  0.50713040  0.82262088    -0.03400
C2185       C  0.52273323  0.03813312  0.85309935    -0.17100
C2186       C  0.51389500  0.47817566  0.85068726    -0.16900
C2187       C  0.96138575  0.48512940  0.85239858    -0.17200
C2188       C  0.52072404  0.04227089  0.84002556    -0.17200
C2189       C  0.51490033  0.48103508  0.83755328    -0.16800
C2190       C  0.96052795  0.48741097  0.83925981    -0.17100
C2191       C  0.66945702  0.33614166  0.49874399     0.45600
H2192       H  0.67001364  0.33772279  0.48812862    -0.03400
C2193       C  0.66676017  0.33161581  0.52365046     0.45700
H2194       H  0.66505421  0.32912064  0.53426765    -0.03400
C2195       C  0.68918897  0.31666694  0.50452222    -0.17100
C2196       C  0.68768677  0.37350323  0.50564149    -0.16900
C2197       C  0.63012258  0.31614135  0.50422173    -0.17200
C2198       C  0.68577761  0.31330933  0.51767564    -0.17200
C2199       C  0.68770294  0.37038689  0.51886623    -0.16800
C2200       C  0.62961448  0.31486902  0.51734605    -0.17100
C2201       C  0.83307568  0.16860603  0.47716658     0.45600
H2202       H  0.83234997  0.16999170  0.48777502    -0.03400
C2203       C  0.83547203  0.16572288  0.45220197     0.45700
H2204       H  0.83698838  0.16456517  0.44158810    -0.03400
C2205       C  0.81541181  0.18807928  0.47017048    -0.17100
C2206       C  0.87232206  0.18713510  0.47169198    -0.16900
C2207       C  0.81333088  0.12943567  0.47152535    -0.17200
C2208       C  0.81621132  0.18562614  0.45696128    -0.17200
C2209       C  0.87276233  0.18425435  0.45855839    -0.16800
C2210       C  0.81530479  0.12878800  0.45838157    -0.17100
Zn2211     Zn  0.78526139  0.14223412  0.59156556     1.49700
Zn2212     Zn  0.86009443  0.14000440  0.59153540     1.49400
Zn2213     Zn  0.86134283  0.21591149  0.59032301     1.49100
Zn2214     Zn  0.83722372  0.16897811  0.61512336     1.49500
O2215       O  0.83605095  0.16671673  0.59682360    -1.84000
O2216       O  0.77462704  0.09883820  0.58123147    -0.74600
O2217       O  0.89990768  0.16997554  0.57902009    -0.74400
O2218       O  0.82823117  0.22428833  0.57900426    -0.73900
O2219       O  0.82449442  0.09482647  0.58225097    -0.74600
O2220       O  0.77486606  0.17432349  0.58036408    -0.74200
O2221       O  0.90369813  0.22355404  0.57960425    -0.74800
O2222       O  0.85617678  0.21778744  0.62153731    -0.74200
O2223       O  0.88303997  0.12797485  0.60669002    -0.75000
O2224       O  0.87863000  0.25326704  0.60456839    -0.74300
O2225       O  0.86913624  0.15352780  0.62243145    -0.74800
O2226       O  0.78957371  0.13861025  0.62289109    -0.74700
O2227       O  0.75083667  0.12409856  0.60675144    -0.74500
C2228       C  0.79208405  0.08296809  0.57845255     0.77300
C2229       C  0.91465194  0.20270058  0.57558613     0.77800
C2230       C  0.79497306  0.20584990  0.57595358     0.76700
C2231       C  0.87307968  0.24873660  0.61659527     0.77100
C2232       C  0.88475919  0.13705517  0.61843292     0.78200
C2233       C  0.75752741  0.12324345  0.61861274     0.77300
Zn2234     Zn  0.49792090  0.00758237  0.69346972     1.49700
Zn2235     Zn  0.97703307  0.02965713  0.71856038     1.49400
Zn2236     Zn  0.96967182  0.45229487  0.71531491     1.49100
Zn2237     Zn  0.54961992  0.02324948  0.71690167     1.49500
O2238       O  0.49893316  0.00283481  0.71166231    -1.84000
O2239       O  0.98506837  0.04187581  0.68749563    -0.74600
O2240       O  0.93245827  0.49770807  0.72838961    -0.74400
O2241       O  0.95192017  0.42114469  0.69909226    -0.73900
O2242       O  0.96541220  0.05662611  0.70483581    -0.74600
O2243       O  0.96426301  0.46269253  0.68439472    -0.74200
O2244       O  0.92617721  0.44347980  0.72583129    -0.74800
O2245       O  0.55474394  0.48518022  0.72606206    -0.74200
O2246       O  0.51292013  0.06595084  0.73196372    -0.75000
O2247       O  0.50009032  0.43633130  0.72590161    -0.74300
O2248       O  0.56411800  0.06512800  0.72895808    -0.74800
O2249       O  0.58428666  0.03945278  0.70171717    -0.74700
O2250       O  0.54534103  0.02554522  0.68573507    -0.74500
C2251       C  0.97207222  0.05926718  0.69284427     0.77300
C2252       C  0.91513823  0.46392956  0.73026779     0.77800
C2253       C  0.95074317  0.43003772  0.68751182     0.76700
C2254       C  0.53349272  0.45243106  0.72896645     0.77100
C2255       C  0.54634455  0.07805400  0.73433234     0.78200
C2256       C  0.57725811  0.03753125  0.68977241     0.77300
C2257       C  0.82966042  0.16568998  0.16812103     0.45600
H2258       H  0.82883100  0.16407950  0.15751361    -0.03400
C2259       C  0.83098683  0.16840832  0.19307361     0.45700
H2260       H  0.83182714  0.16974088  0.20372466    -0.03400
C2261       C  0.79125170  0.14356606  0.17430053    -0.17100
C2262       C  0.85217785  0.15020711  0.17443815    -0.16900
C2263       C  0.84647964  0.20486941  0.17362276    -0.17200
C2264       C  0.79251577  0.14627507  0.18752074    -0.17200
C2265       C  0.85231486  0.15159440  0.18761859    -0.16800
C2266       C  0.84709881  0.20537139  0.18684510    -0.17100
C2267       C  0.99771621  0.99982307  0.11984273     0.45600
H2268       H  0.99834779  0.00008573  0.10918169    -0.03400
C2269       C  0.99613365  0.99962133  0.14481155     0.45700
H2270       H  0.99563009  0.99820643  0.15538499    -0.03400
C2271       C  0.97789822  0.01810202  0.12539684    -0.17100
C2272       C  0.97914623  0.46069008  0.12503343    -0.16900
C2273       C  0.53488849  0.01934433  0.12520750    -0.17200
C2274       C  0.97567586  0.01782832  0.13871871    -0.17200
C2275       C  0.97676080  0.46002650  0.13818351    -0.16800
C2276       C  0.53526548  0.01989203  0.13837754    -0.17100
Zn2277     Zn  0.63522343  0.35613792  0.93607173     1.49700
Zn2278     Zn  0.66526914  0.33535574  0.91167347     1.49400
Zn2279     Zn  0.71462606  0.36704146  0.93682769     1.49100
Zn2280     Zn  0.64628725  0.28789114  0.93665050     1.49500
O2281       O  0.66545651  0.33669058  0.93032082    -1.84000
O2282       O  0.61290249  0.36832215  0.92120687    -0.74600
O2283       O  0.71533324  0.36671391  0.90481696    -0.74400
O2284       O  0.71732099  0.40476044  0.94894050    -0.73900
O2285       O  0.63243825  0.35161332  0.90439051    -0.74600
O2286       O  0.66246772  0.39838453  0.94783693    -0.74200
O2287       O  0.74932020  0.39009291  0.92223999    -0.74800
O2288       O  0.68302205  0.28380244  0.94713038    -0.74200
O2289       O  0.64650091  0.28540786  0.90495768    -0.75000
O2290       O  0.73108775  0.33842219  0.94730825    -0.74300
O2291       O  0.63030122  0.25145421  0.92241540    -0.74800
O2292       O  0.60487969  0.27463688  0.94853411    -0.74700
O2293       O  0.59563233  0.32087427  0.94736482    -0.74500
C2294       C  0.61334888  0.36383932  0.90914961     0.77300
C2295       C  0.74591414  0.38660838  0.91010441     0.77800
C2296       C  0.69414653  0.41319049  0.95259071     0.76700
C2297       C  0.71511526  0.30564642  0.95072345     0.77100
C2298       C  0.63253029  0.25477563  0.91027423     0.78200
C2299       C  0.58779335  0.29043049  0.95188637     0.77300
Zn2300     Zn  0.85962072  0.21543613  0.03933942     1.49700
Zn2301     Zn  0.83110103  0.16528569  0.06386476     1.49400
Zn2302     Zn  0.78013482  0.14603109  0.03945651     1.49100
Zn2303     Zn  0.85051868  0.13751285  0.03885083     1.49500
O2304       O  0.83020607  0.16605723  0.04532331    -1.84000
O2305       O  0.87668884  0.25093247  0.05403570    -0.74600
O2306       O  0.78139447  0.14444838  0.07109552    -0.74400
O2307       O  0.77644775  0.17927864  0.02667576    -0.73900
O2308       O  0.85873966  0.21491230  0.07096623    -0.74600
O2309       O  0.83157040  0.22712075  0.02681276    -0.74200
O2310       O  0.74559539  0.13525948  0.05436846    -0.74800
O2311       O  0.81405876  0.09664687  0.02828916    -0.74200
O2312       O  0.85365207  0.13732602  0.07046243    -0.75000
O2313       O  0.76428450  0.10045487  0.02948903    -0.74300
O2314       O  0.86853736  0.11865402  0.05295499    -0.74800
O2315       O  0.89199264  0.16627229  0.02717353    -0.74700
O2316       O  0.90185140  0.22174881  0.02884626    -0.74500
C2317       C  0.87414820  0.24618999  0.06614211     0.77300
C2318       C  0.75037133  0.13502298  0.06643762     0.77800
C2319       C  0.79963043  0.20995384  0.02232671     0.76700
C2320       C  0.78115050  0.08506477  0.02537377     0.77100
C2321       C  0.86763225  0.12058984  0.06510256     0.78200
C2322       C  0.90951622  0.19916575  0.02406640     0.77300
C2323       C  0.80396701  0.26038980  0.99185031    -0.11200
C2324       C  0.76872779  0.25457480  0.99126810     0.15300
C2325       C  0.74347947  0.23359709  0.00078937     0.02200
C2326       C  0.75417402  0.21927061  0.01077400    -0.15600
C2327       C  0.78963732  0.22545443  0.01151079    -0.10400
C2328       C  0.81450909  0.24552273  0.00167892     0.08900
C2329       C  0.75845691  0.26890598  0.98020802     0.10000
S2330       S  0.69717470  0.22375663  0.00066565    -0.24700
H2331       H  0.73471390  0.20346379  0.01810598     0.20200
S2332       S  0.85905747  0.25085310  0.00048767    -0.30400
H2333       H  0.82301907  0.27561457  0.98432859     0.10500
C2334       C  0.76827902  0.30530616  0.97954915     0.03700
C2335       C  0.75558526  0.31713028  0.96933954    -0.12700
C2336       C  0.73299273  0.29314304  0.95983876    -0.08400
C2337       C  0.72485030  0.25698533  0.96018681     0.07200
C2338       C  0.73766669  0.24531660  0.97040098    -0.13500
S2339       S  0.79515800  0.33613631  0.99211289    -0.30400
H2340       H  0.76178991  0.34477727  0.96911470     0.11400
S2341       S  0.69884342  0.22559926  0.94759867    -0.27500
H2342       H  0.73106381  0.21757000  0.97091731     0.08700
H2343       H  0.84809153  0.21539281  0.00414750     0.27100
H2344       H  0.79526367  0.36651172  0.98711311     0.21900
H2345       H  0.69705510  0.19502917  0.95317698     0.27200
H2346       H  0.70351563  0.25529878  0.99443493     0.16100
C2347       C  0.69152186  0.45532191  0.98422931    -0.11200
C2348       C  0.72490284  0.48722429  0.98402910     0.15300
C2349       C  0.74758459  0.49543516  0.97322181     0.02200
C2350       C  0.73685118  0.47106914  0.96301162    -0.15600
C2351       C  0.70354111  0.43895910  0.96322890    -0.10400
C2352       C  0.68075528  0.43095677  0.97404208     0.08900
C2353       C  0.73767771  0.00917772  0.99464783     0.10000
S2354       S  0.79217639  0.03516500  0.97107837    -0.24700
H2355       H  0.75456111  0.47724912  0.95481322     0.20200
S2356       S  0.63895743  0.38902664  0.97589605    -0.30400
H2357       H  0.67435305  0.44877051  0.99260436     0.10500
C2358       C  0.72321731  0.03141273  0.99743200     0.03700
C2359       C  0.73613309  0.05424876  0.00810006    -0.12700
C2360       C  0.76314941  0.05513676  0.01608605    -0.08400
C2361       C  0.77549819  0.03066103  0.01372901     0.07200
C2362       C  0.76308896  0.00846882  0.00293166    -0.13500
S2363       S  0.68998327  0.03225873  0.98694496    -0.30400
H2364       H  0.72646905  0.07280338  0.00980731     0.11400
S2365       S  0.80653271  0.02589613  0.02414583    -0.27500
H2366       H  0.77327911  0.99042627  0.00095374     0.08700
H2367       H  0.65190500  0.36758559  0.97056505     0.27100
H2368       H  0.68445135  0.05663870  0.99420012     0.21900
H2369       H  0.79269162  0.03203145  0.03550745     0.27200
H2370       H  0.78335386  0.05645345  0.97878829     0.16100
C2371       C  0.50836065  0.26839036  0.97363751    -0.11200
C2372       C  0.51538443  0.25140823  0.98377332     0.15300
C2373       C  0.54469926  0.24521355  0.98297616     0.02200
C2374       C  0.56663020  0.25651096  0.97209854    -0.15600
C2375       C  0.56028071  0.27438160  0.96203855    -0.10400
C2376       C  0.53025233  0.27967462  0.96274042     0.08900
C2377       C  0.99252873  0.23815966  0.99537572     0.10000
S2378       S  0.55582975  0.22352203  0.99552527    -0.24700
H2379       H  0.58976616  0.25259707  0.97174574     0.20200
S2380       S  0.51763089  0.29940236  0.94994618    -0.30400
H2381       H  0.98749660  0.27254887  0.97508320     0.10500
C2382       C  0.99308800  0.26119010  0.00505053     0.03700
C2383       C  0.96626649  0.24754417  0.01451779    -0.12700
C2384       C  0.93857855  0.21138186  0.01437529    -0.08400
C2385       C  0.93842756  0.18842653  0.00456449     0.07200
C2386       C  0.96576466  0.20196949  0.99537038    -0.13500
S2387       S  0.52776662  0.30794471  0.00463432    -0.30400
H2388       H  0.96661747  0.26522650  0.02197110     0.11400
S2389       S  0.90282397  0.14255920  0.00244079    -0.27500
H2390       H  0.96522889  0.18454803  0.98775591     0.08700
H2391       H  0.52856436  0.28484335  0.94000176     0.27100
H2392       H  0.51807772  0.31740136  0.01626938     0.21900
H2393       H  0.87485349  0.15059577  0.00370817     0.27200
H2394       H  0.54156315  0.23373127  0.00575959     0.16100
C2395       C  0.89096946  0.30627001  0.09511857    -0.11200
C2396       C  0.92229549  0.33748662  0.09132944     0.15300
C2397       C  0.93759592  0.33888295  0.07920909     0.02200
C2398       C  0.92093440  0.30903950  0.07108009    -0.15600
C2399       C  0.88949476  0.27756912  0.07483927    -0.10400
C2400       C  0.87407522  0.27657013  0.08697550     0.08900
C2401       C  0.93680681  0.36885808  0.09991310     0.10000
S2402       S  0.97788036  0.37800055  0.07347477    -0.24700
H2403       H  0.93302737  0.31020567  0.06183225     0.20200
S2404       S  0.83179366  0.23935561  0.09238963    -0.30400
H2405       H  0.87889350  0.30553745  0.10433558     0.10500
C2406       C  0.92773328  0.39572551  0.09819514     0.03700
C2407       C  0.94230215  0.42525122  0.10647906    -0.12700
C2408       C  0.96523790  0.42830980  0.11664738    -0.08400
C2409       C  0.97493598  0.40138444  0.11812602     0.07200
C2410       C  0.95991939  0.37168324  0.10991229    -0.13500
S2411       S  0.89728456  0.39222778  0.08551848    -0.30400
H2412       H  0.93558983  0.44592915  0.10505592     0.11400
S2413       S  0.50887001  0.40534604  0.12965605    -0.27500
H2414       H  0.96725405  0.35112581  0.11103080     0.08700
H2415       H  0.81463413  0.23303370  0.08036559     0.27100
H2416       H  0.89465319  0.42235918  0.08907497     0.21900
H2417       H  0.52652928  0.44244468  0.13172698     0.27200
H2418       H  0.99345767  0.39165246  0.08552665     0.16100
C2419       C  0.90854893  0.06492488  0.07724942    -0.11200
C2420       C  0.91730711  0.07734860  0.08992681     0.15300
C2421       C  0.91005534  0.10428326  0.09424206     0.02200
C2422       C  0.89391882  0.11747363  0.08589929    -0.15600
C2423       C  0.88408373  0.10437028  0.07331705    -0.10400
C2424       C  0.89133268  0.07736360  0.06902754     0.08900
C2425       C  0.93354251  0.06145241  0.09836861     0.10000
S2426       S  0.92041872  0.12358003  0.11015888    -0.24700
H2427       H  0.88905209  0.13841788  0.08935237     0.20200
S2428       S  0.87806599  0.05630865  0.05349348    -0.30400
H2429       H  0.91434709  0.04456585  0.07382963     0.10500
C2430       C  0.91497463  0.02448431  0.10133237     0.03700
C2431       C  0.93062681  0.01106010  0.10986585    -0.12700
C2432       C  0.96302146  0.03401808  0.11627760    -0.08400
C2433       C  0.98169012  0.07075873  0.11313629     0.07200
C2434       C  0.96751950  0.08387410  0.10391581    -0.13500
S2435       S  0.87031856  0.99459652  0.09500590    -0.30400
H2436       H  0.91625728  0.98295180  0.11232064     0.11400
S2437       S  0.52273069  0.10207249  0.12083586    -0.27500
H2438       H  0.98214923  0.11216339  0.10154786     0.08700
H2439       H  0.84300853  0.05145085  0.05416463     0.27100
H2440       H  0.86367415  0.96400208  0.10202170     0.21900
H2441       H  0.50471487  0.09709117  0.13258667     0.27200
H2442       H  0.92178385  0.09559342  0.11639671     0.16100
C2443       C  0.65980373  0.11129828  0.08159010    -0.11200
C2444       C  0.66109089  0.09408288  0.09281911     0.15300
C2445       C  0.69224869  0.09194484  0.09558681     0.02200
C2446       C  0.72086721  0.10599233  0.08687503    -0.15600
C2447       C  0.71951909  0.12257164  0.07542983    -0.10400
C2448       C  0.68881924  0.12603831  0.07297371     0.08900
C2449       C  0.62849415  0.07587671  0.10090279     0.10000
S2450       S  0.69692463  0.07064417  0.10981618    -0.24700
H2451       H  0.74420151  0.10325862  0.08897870     0.20200
S2452       S  0.68527467  0.14970837  0.05931660    -0.30400
H2453       H  0.63592726  0.11311975  0.07951316     0.10500
C2454       C  0.61947693  0.09468329  0.10979143     0.03700
C2455       C  0.58926883  0.07556575  0.11771600    -0.12700
C2456       C  0.56760432  0.03807303  0.11685802    -0.08400
C2457       C  0.57629004  0.01959225  0.10758863     0.07200
C2458       C  0.60682054  0.03865193  0.09984924    -0.13500
S2459       S  0.64661319  0.14287055  0.11110087    -0.30400
H2460       H  0.58220438  0.08996434  0.12448022     0.11400
S2461       S  0.55108508  0.47286496  0.10602771    -0.27500
H2462       H  0.61419747  0.02454142  0.09297876     0.08700
H2463       H  0.72148892  0.17762932  0.05990741     0.27100
H2464       H  0.62725665  0.14682076  0.12126440     0.21900
H2465       H  0.57073388  0.46974949  0.09579111     0.27200
H2466       H  0.67116405  0.07302195  0.11742948     0.16100
C2467       C  0.92123050  0.12452670  0.16279132    -0.11200
C2468       C  0.89851285  0.08843082  0.15922469     0.15300
C2469       C  0.86060347  0.07429792  0.16017569     0.02200
C2470       C  0.84686704  0.09713003  0.16303482    -0.15600
C2471       C  0.86947940  0.13237207  0.16736088    -0.10400
C2472       C  0.90736354  0.14594756  0.16739356     0.08900
C2473       C  0.91545892  0.06671929  0.15481889     0.10000
S2474       S  0.82830029  0.02678471  0.15996838    -0.24700
H2475       H  0.81783010  0.08584561  0.16350208     0.20200
S2476       S  0.94002219  0.18959077  0.17360960    -0.30400
H2477       H  0.95027936  0.13589757  0.16242794     0.10500
C2478       C  0.90436767  0.04563792  0.14356215     0.03700
C2479       C  0.92126873  0.02615837  0.14001870    -0.12700
C2480       C  0.95323533  0.03118215  0.14587739    -0.08400
C2481       C  0.96303749  0.05052098  0.15766729     0.07200
C2482       C  0.94404170  0.06774049  0.16193485    -0.13500
S2483       S  0.87088360  0.04542811  0.13287110    -0.30400
H2484       H  0.90946806  0.00714187  0.13236096     0.11400
S2485       S  0.99777024  0.05232419  0.16797408    -0.27500
H2486       H  0.95165203  0.08240713  0.17089962     0.08700
H2487       H  0.91656196  0.20253179  0.17639189     0.27100
H2488       H  0.87152998  0.02222615  0.12353278     0.21900
H2489       H  0.49903341  0.07746374  0.17635139     0.27200
H2490       H  0.85267868  0.01586800  0.16402886     0.16100
C2491       C  0.90835399  0.29007526  0.15422202    -0.11200
C2492       C  0.89667255  0.31366918  0.15847382     0.15300
C2493       C  0.86474397  0.29904134  0.16594082     0.02200
C2494       C  0.84691597  0.26260180  0.16948719    -0.15600
C2495       C  0.86010683  0.23954510  0.16610508    -0.10400
C2496       C  0.89025530  0.25346227  0.15776160     0.08900
C2497       C  0.91689279  0.35260470  0.15440793     0.10000
S2498       S  0.84588123  0.32559782  0.17177155    -0.24700
H2499       H  0.82344977  0.25259940  0.17562918     0.20200
S2500       S  0.90711032  0.22601333  0.15139524    -0.30400
H2501       H  0.93179442  0.30026633  0.14803567     0.10500
C2502       C  0.95275591  0.37690351  0.15842688     0.03700
C2503       C  0.97070107  0.41295138  0.15408310    -0.12700
C2504       C  0.95409915  0.42528834  0.14542799    -0.08400
C2505       C  0.91727460  0.40154990  0.14222942     0.07200
C2506       C  0.89957955  0.36576741  0.14649024    -0.13500
S2507       S  0.97608889  0.36188835  0.16889272    -0.30400
H2508       H  0.49844136  0.43219823  0.15735736     0.11400
S2509       S  0.89093683  0.41530212  0.13281678    -0.27500
H2510       H  0.87185530  0.34790052  0.14357642     0.08700
H2511       H  0.87487494  0.20366244  0.14474527     0.27100
H2512       H  0.50649788  0.39707716  0.17158797     0.21900
H2513       H  0.91042093  0.45135514  0.13660072     0.27200
H2514       H  0.87879668  0.35808515  0.17274682     0.16100
C2515       C  0.69492249  0.07060467  0.16468333    -0.11200
C2516       C  0.68550519  0.08837786  0.15562003     0.15300
C2517       C  0.71282303  0.12280171  0.15145565     0.02200
C2518       C  0.74767462  0.13906607  0.15704311    -0.15600
C2519       C  0.75647006  0.12185787  0.16670862    -0.10400
C2520       C  0.72983687  0.08600068  0.16986996     0.08900
C2521       C  0.64653426  0.07049667  0.15145432     0.10000
S2522       S  0.70500333  0.14771638  0.13924155    -0.24700
H2523       H  0.76754217  0.16615390  0.15426700     0.20200
S2524       S  0.73931852  0.05784747  0.17992868    -0.30400
H2525       H  0.67433451  0.04422242  0.16781117     0.10500
C2526       C  0.62813007  0.03514706  0.14648355     0.03700
C2527       C  0.59080309  0.01824810  0.14388568    -0.12700
C2528       C  0.57107400  0.03616754  0.14530287    -0.08400
C2529       C  0.59005393  0.07217288  0.14990126     0.07200
C2530       C  0.62676112  0.08808072  0.15334895    -0.13500
S2531       S  0.65255524  0.01229620  0.14241684    -0.30400
H2532       H  0.57732874  0.99159052  0.13979225     0.11400
S2533       S  0.57135745  0.10143174  0.15055839    -0.27500
H2534       H  0.64046315  0.11513070  0.15718074     0.08700
H2535       H  0.70408348  0.02830607  0.18085461     0.27100
H2536       H  0.62341075  0.98166829  0.13685240     0.21900
H2537       H  0.53862929  0.07830297  0.14459304     0.27200
H2538       H  0.67695797  0.11773576  0.13302248     0.16100
C2539       C  0.91058889  0.08688524  0.64194382    -0.11200
C2540       C  0.93079416  0.11442591  0.65079792     0.15300
C2541       C  0.93973905  0.14988509  0.64792323     0.02200
C2542       C  0.92697478  0.15674878  0.63657301    -0.15600
C2543       C  0.90464936  0.12890238  0.62811376    -0.10400
C2544       C  0.89691923  0.09363009  0.63073163     0.08900
C2545       C  0.94214804  0.10524206  0.66290743     0.10000
S2546       S  0.96574267  0.18721767  0.65857504    -0.24700
H2547       H  0.93279902  0.18388466  0.63467094     0.20200
S2548       S  0.86770818  0.05589487  0.62073826    -0.30400
H2549       H  0.90412849  0.05968121  0.64407611     0.10500
C2550       C  0.91698984  0.08564157  0.67263172     0.03700
C2551       C  0.92824942  0.07404912  0.68335093    -0.12700
C2552       C  0.96412523  0.08176408  0.68442571    -0.08400
C2553       C  0.98981042  0.10407727  0.67520030     0.07200
C2554       C  0.97851258  0.11533030  0.66450449    -0.13500
S2555       S  0.87032667  0.07421327  0.67112312    -0.30400
H2556       H  0.90858790  0.05667428  0.69036048     0.11400
S2557       S  0.53441586  0.11871312  0.67787568    -0.27500
H2558       H  0.99797448  0.13111222  0.65716928     0.08700
H2559       H  0.84178265  0.06641054  0.61877064     0.27100
H2560       H  0.85945119  0.05933506  0.68343508     0.21900
H2561       H  0.53479205  0.11505533  0.69127433     0.27200
H2562       H  0.95360516  0.16771227  0.67005918     0.16100
C2563       C  0.90182886  0.34286749  0.66826996    -0.11200
C2564       C  0.91729221  0.35519904  0.65612011     0.15300
C2565       C  0.94196811  0.39189386  0.65431923     0.02200
C2566       C  0.95080762  0.41538456  0.66463789    -0.15600
C2567       C  0.93638824  0.40323699  0.67697557    -0.10400
C2568       C  0.91101829  0.36642372  0.67870376     0.08900
C2569       C  0.90765560  0.32921220  0.64553139     0.10000
S2570       S  0.96432334  0.41028115  0.63924307    -0.24700
H2571       H  0.97053021  0.44338550  0.66305443     0.20200
S2572       S  0.88876973  0.34794516  0.69373990    -0.30400
H2573       H  0.88245762  0.31464296  0.66961147     0.10500
C2574       C  0.91826726  0.30312662  0.64583608     0.03700
C2575       C  0.90786196  0.27831942  0.63583771    -0.12700
C2576       C  0.88731080  0.27915338  0.62548486    -0.08400
C2577       C  0.87771139  0.30603679  0.62493016     0.07200
C2578       C  0.88814789  0.33093701  0.63496286    -0.13500
S2579       S  0.94552045  0.30168287  0.65884060    -0.30400
H2580       H  0.91522912  0.25764961  0.63615405     0.11400
S2581       S  0.85098264  0.30901381  0.61210613    -0.27500
H2582       H  0.88031832  0.35127947  0.63470164     0.08700
H2583       H  0.88410064  0.37720685  0.69675511     0.27100
H2584       H  0.94698258  0.27145612  0.65454987     0.21900
H2585       H  0.82935943  0.27189283  0.61002271     0.27200
H2586       H  0.96715425  0.38037395  0.63555424     0.16100
C2587       C  0.70575702  0.07264074  0.64794567    -0.11200
C2588       C  0.67873805  0.08187176  0.64831301     0.15300
C2589       C  0.67542495  0.10169855  0.63814424     0.02200
C2590       C  0.69994325  0.11267861  0.62796291    -0.15600
C2591       C  0.72806780  0.10487350  0.62789663    -0.10400
C2592       C  0.73026124  0.08364506  0.63781461     0.08900
C2593       C  0.65376691  0.06935670  0.65925409     0.10000
S2594       S  0.64100239  0.11424867  0.63765923    -0.24700
H2595       H  0.69824519  0.12905820  0.62041171     0.20200
S2596       S  0.76350376  0.06948848  0.63805704    -0.30400
H2597       H  0.70766926  0.05665554  0.65560407     0.10500
C2598       C  0.62061929  0.03708619  0.65855010     0.03700
C2599       C  0.59691217  0.02688496  0.66893253    -0.12700
C2600       C  0.60562194  0.04838795  0.67999932    -0.08400
C2601       C  0.63931733  0.08041038  0.68076927     0.07200
C2602       C  0.66331779  0.09025340  0.67044814    -0.13500
S2603       S  0.60844554  0.00912283  0.64439324    -0.30400
H2604       H  0.57112849  0.00221168  0.66837200     0.11400
S2605       S  0.65216932  0.11090991  0.69415375    -0.27500
H2606       H  0.68899520  0.11509184  0.67091059     0.08700
H2607       H  0.76635358  0.06814711  0.62465061     0.27100
H2608       H  0.57792315  0.46883928  0.65135430     0.21900
H2609       H  0.61788159  0.10748993  0.69568164     0.27200
H2610       H  0.63725269  0.11608962  0.65096946     0.16100
C2611       C  0.73311281  0.01270199  0.55381210    -0.11200
C2612       C  0.74395207  0.48599818  0.55591176     0.15300
C2613       C  0.76698919  0.48971970  0.56620997     0.02200
C2614       C  0.78267801  0.02282084  0.57310192    -0.15600
C2615       C  0.77433134  0.04992610  0.57063544    -0.10400
C2616       C  0.74928924  0.04471277  0.56078286     0.08900
C2617       C  0.73003429  0.45551432  0.54698459     0.10000
S2618       S  0.77703111  0.45512678  0.57059956    -0.24700
H2619       H  0.80166756  0.02638654  0.58064774     0.20200
S2620       S  0.73893432  0.07870998  0.55586982    -0.30400
H2621       H  0.71473997  0.00919268  0.54603735     0.10500
C2622       C  0.69474525  0.42635518  0.54792594     0.03700
C2623       C  0.68245462  0.39902675  0.53874491    -0.12700
C2624       C  0.70430430  0.40047803  0.52839985    -0.08400
C2625       C  0.74056921  0.42957571  0.52789676     0.07200
C2626       C  0.75256245  0.45674046  0.53709355    -0.13500
S2627       S  0.66556637  0.42385933  0.56087822    -0.30400
H2628       H  0.65545073  0.37645191  0.53963842     0.11400
S2629       S  0.77450404  0.43440392  0.51657295    -0.27500
H2630       H  0.77996317  0.47922332  0.53658034     0.08700
H2631       H  0.77486012  0.10713625  0.55674794     0.27100
H2632       H  0.63568866  0.39051038  0.55747077     0.21900
H2633       H  0.75429054  0.40182753  0.51039284     0.27200
H2634       H  0.74437150  0.42596599  0.56623412     0.16100
C2635       C  0.54920866  0.29834587  0.53795089    -0.11200
C2636       C  0.53734900  0.26330899  0.54214858     0.15300
C2637       C  0.55482557  0.24499919  0.53765669     0.02200
C2638       C  0.58371888  0.26218431  0.52912376    -0.15600
C2639       C  0.59639679  0.29766931  0.52524379    -0.10400
C2640       C  0.57899731  0.31615155  0.52985762     0.08900
C2641       C  0.50665781  0.24690095  0.55118541     0.10000
S2642       S  0.54256499  0.20036045  0.54280151    -0.24700
H2643       H  0.59725744  0.24812603  0.52584186     0.20200
S2644       S  0.59302021  0.36241529  0.52644301    -0.30400
H2645       H  0.53560426  0.31232843  0.54132618     0.10500
C2646       C  0.00934233  0.26015580  0.56330191     0.03700
C2647       C  0.97872043  0.24534811  0.57117056    -0.12700
C2648       C  0.94557633  0.21717055  0.56680098    -0.08400
C2649       C  0.94285669  0.20358220  0.55426605     0.07200
C2650       C  0.97338434  0.21853444  0.54637141    -0.13500
S2651       S  0.55122788  0.29901415  0.56918108    -0.30400
H2652       H  0.98060044  0.25538233  0.58083733     0.11400
S2653       S  0.90108204  0.16822993  0.54764162    -0.27500
H2654       H  0.97114391  0.20859203  0.53666246     0.08700
H2655       H  0.62360804  0.37064941  0.51920189     0.27100
H2656       H  0.03965718  0.29765322  0.58170569     0.21900
H2657       H  0.87817937  0.17709616  0.55440349     0.27200
H2658       H  0.53167328  0.20349837  0.55522341     0.16100
C2659       C  0.70965431  0.24745354  0.53331548    -0.11200
C2660       C  0.73169422  0.26842061  0.54344048     0.15300
C2661       C  0.73805984  0.30357902  0.54515587     0.02200
C2662       C  0.72296664  0.31722520  0.53652532    -0.15600
C2663       C  0.70107243  0.29646889  0.52625074    -0.10400
C2664       C  0.69350287  0.26063184  0.52493735     0.08900
C2665       C  0.74771448  0.25272777  0.55195642     0.10000
S2666       S  0.76508694  0.33235910  0.55811102    -0.24700
H2667       H  0.72863476  0.34455614  0.53778535     0.20200
S2668       S  0.66169485  0.22926823  0.51356099    -0.30400
H2669       H  0.70423411  0.22017533  0.53215569     0.10500
C2670       C  0.72680467  0.22706558  0.56129002     0.03700
C2671       C  0.74276330  0.21190578  0.56889289    -0.12700
C2672       C  0.77917499  0.22156364  0.56724083    -0.08400
C2673       C  0.79966342  0.24660320  0.55753859     0.07200
C2674       C  0.78391576  0.26236895  0.55021403    -0.13500
S2675       S  0.68004212  0.21434273  0.56370545    -0.30400
H2676       H  0.72694657  0.19285948  0.57629805     0.11400
S2677       S  0.84513382  0.25795241  0.55341632    -0.27500
H2678       H  0.79965950  0.28150421  0.54280162     0.08700
H2679       H  0.64043458  0.24550099  0.51307384     0.27100
H2680       H  0.67199131  0.18694133  0.57265916     0.21900
H2681       H  0.83873379  0.22271070  0.55473239     0.27200
H2682       H  0.75746210  0.30487533  0.56695862     0.16100
C2683       C  0.73811230  0.03684526  0.48221126    -0.11200
C2684       C  0.75776488  0.02217271  0.48770098     0.15300
C2685       C  0.79560661  0.04443541  0.48901909     0.02200
C2686       C  0.81272485  0.08004673  0.48457459    -0.15600
C2687       C  0.79322762  0.09485507  0.47897094    -0.10400
C2688       C  0.75525675  0.07249363  0.47779014     0.08900
C2689       C  0.73708454  0.48295089  0.49166501     0.10000
S2690       S  0.82370346  0.02863696  0.49591801    -0.24700
H2691       H  0.84181558  0.09521473  0.48454864     0.20200
S2692       S  0.72843683  0.08807393  0.46976484    -0.30400
H2693       H  0.70920392  0.01974213  0.48102100     0.10500
C2694       C  0.71085232  0.47040458  0.50143969     0.03700
C2695       C  0.69245314  0.43387856  0.50467283    -0.12700
C2696       C  0.70135810  0.40942049  0.49914872    -0.08400
C2697       C  0.72661332  0.42167410  0.48894434     0.07200
C2698       C  0.74385873  0.45814376  0.48525332    -0.13500
S2699       S  0.70254928  0.50126984  0.51055008    -0.30400
H2700       H  0.67237623  0.42476716  0.51216281     0.11400
S2701       S  0.73970516  0.39226013  0.48133583    -0.27500
H2702       H  0.76363019  0.46775065  0.47761708     0.08700
H2703       H  0.69447767  0.05729591  0.47168299     0.27100
H2704       H  0.68170671  0.47710453  0.52027817     0.21900
H2705       H  0.76122227  0.41620906  0.47167039     0.27200
H2706       H  0.79811137  0.00668502  0.50509000     0.16100
C2707       C  0.53959181  0.25098942  0.48840606    -0.11200
C2708       C  0.52047977  0.26953201  0.48989265     0.15300
C2709       C  0.53955778  0.30491020  0.49486079     0.02200
C2710       C  0.57694525  0.32135181  0.49720407    -0.15600
C2711       C  0.59534076  0.30196621  0.49672893    -0.10400
C2712       C  0.57609297  0.26622659  0.49221532     0.08900
C2713       C  0.98116197  0.25132314  0.48662275     0.10000
S2714       S  0.51733037  0.32901496  0.50000574    -0.24700
H2715       H  0.59116644  0.34879917  0.50050650     0.20200
S2716       S  0.59722471  0.23916638  0.49177554    -0.30400
H2717       H  0.52539821  0.22388655  0.48465694     0.10500
C2718       C  0.96633588  0.26566820  0.47789842     0.03700
C2719       C  0.92943732  0.24574382  0.47466202    -0.12700
C2720       C  0.90699848  0.21042736  0.47901467    -0.08400
C2721       C  0.92102825  0.19715016  0.48843407     0.07200
C2722       C  0.95777801  0.21753034  0.49206861    -0.13500
S2723       S  0.49447617  0.30654969  0.46937833    -0.30400
H2724       H  0.91833888  0.25687003  0.46798154     0.11400
S2725       S  0.89269700  0.15445592  0.49588855    -0.27500
H2726       H  0.96866748  0.20683095  0.49903593     0.08700
H2727       H  0.56570278  0.20618925  0.48933943     0.27100
H2728       H  0.96734792  0.30808450  0.46233991     0.21900
H2729       H  0.91898230  0.15491106  0.50413520     0.27200
H2730       H  0.98437706  0.29784740  0.50367601     0.16100
C2731       C  0.76548401  0.29799918  0.49585823    -0.11200
C2732       C  0.74818600  0.26965793  0.48718811     0.15300
C2733       C  0.71347022  0.26072159  0.48262494     0.02200
C2734       C  0.69604449  0.27870014  0.48751283    -0.15600
C2735       C  0.71206818  0.30504026  0.49712290    -0.10400
C2736       C  0.74826591  0.31593934  0.50075462     0.08900
C2737       C  0.76716208  0.24987935  0.48337259     0.10000
S2738       S  0.68970227  0.22591922  0.47088450    -0.24700
H2739       H  0.66910512  0.27078697  0.48422438     0.20200
S2740       S  0.77375595  0.35305060  0.51147208    -0.30400
H2741       H  0.79257002  0.30559753  0.49897453     0.10500
C2742       C  0.79689913  0.26483044  0.47490790     0.03700
C2743       C  0.81443185  0.24563491  0.47186961    -0.12700
C2744       C  0.80234857  0.21085924  0.47665399    -0.08400
C2745       C  0.77467010  0.19725145  0.48601326     0.07200
C2746       C  0.75719106  0.21672248  0.48915554    -0.13500
S2747       S  0.81306269  0.30778525  0.46730066    -0.30400
H2748       H  0.83654827  0.25716439  0.46507792     0.11400
S2749       S  0.75987106  0.15433930  0.49345621    -0.27500
H2750       H  0.73533368  0.20596285  0.49604164     0.08700
H2751       H  0.80524863  0.35053543  0.51222412     0.27100
H2752       H  0.77932775  0.30591624  0.46657011     0.21900
H2753       H  0.73442820  0.15509248  0.50179795     0.27200
H2754       H  0.72072327  0.23049612  0.46453365     0.16100
C2755       C  0.86998475  0.42736872  0.86867595    -0.11200
C2756       C  0.86819268  0.45297646  0.87636918     0.15300
C2757       C  0.89680354  0.48869683  0.87626884     0.02200
C2758       C  0.92678312  0.49791177  0.86849561    -0.15600
C2759       C  0.92901203  0.47235527  0.86077534    -0.10400
C2760       C  0.90004916  0.43635586  0.86103216     0.08900
C2761       C  0.83775919  0.44014683  0.88533605     0.10000
S2762       S  0.89695027  0.52354818  0.88591357    -0.24700
H2763       H  0.94682166  0.02607302  0.86707365     0.20200
S2764       S  0.89953351  0.39964231  0.85265795    -0.30400
H2765       H  0.84815057  0.39972809  0.86898911     0.10500
C2766       C  0.80383781  0.43444714  0.88136384     0.03700
C2767       C  0.77439805  0.41764217  0.88975261    -0.12700
C2768       C  0.77816358  0.40560961  0.90188830    -0.08400
C2769       C  0.81234441  0.41098269  0.90567592     0.07200
C2770       C  0.84184942  0.42893319  0.89748650    -0.13500
S2771       S  0.79810475  0.44791690  0.86553070    -0.30400
H2772       H  0.74826108  0.41342336  0.88679412     0.11400
S2773       S  0.81955711  0.39264271  0.92018304    -0.27500
H2774       H  0.86781740  0.43232086  0.90028523     0.08700
H2775       H  0.93523414  0.41924020  0.84879990     0.27100
H2776       H  0.76087524  0.43552913  0.86656313     0.21900
H2777       H  0.78745175  0.35934416  0.91902526     0.27200
H2778       H  0.85924963  0.50818324  0.88668953     0.16100
C2779       C  0.55153129  0.39646303  0.89568082    -0.11200
C2780       C  0.55831814  0.39703553  0.88250772     0.15300
C2781       C  0.58037740  0.38353578  0.87810591     0.02200
C2782       C  0.59744080  0.37261570  0.88698074    -0.15600
C2783       C  0.59196567  0.37329404  0.90028846    -0.10400
C2784       C  0.56697185  0.38365756  0.90454391     0.08900
C2785       C  0.54597125  0.41596989  0.87382771     0.10000
S2786       S  0.58814719  0.37992870  0.86129125    -0.24700
H2787       H  0.61542056  0.36374601  0.88336460     0.20200
S2788       S  0.55286325  0.38081907  0.92098386    -0.30400
H2789       H  0.53432627  0.40649723  0.89911630     0.10500
C2790       C  0.50918292  0.40534785  0.87231154     0.03700
C2791       C  0.49967042  0.42622135  0.86472460    -0.12700
C2792       C  0.52598409  0.45682841  0.85829549    -0.08400
C2793       C  0.56279537  0.46746728  0.85991833     0.07200
C2794       C  0.57230676  0.44690063  0.86761742    -0.13500
S2795       S  0.47431995  0.36496811  0.87979473    -0.30400
H2796       H  0.47159539  0.41871028  0.86381124     0.11400
S2797       S  0.59924894  0.00866071  0.85343765    -0.27500
H2798       H  0.60055384  0.45547164  0.86915707     0.08700
H2799       H  0.54605691  0.34550021  0.92256049     0.27100
H2800       H  0.44465115  0.36680159  0.87484825     0.21900
H2801       H  0.62803168  0.00278381  0.85629418     0.27200
H2802       H  0.55556001  0.37671239  0.85685784     0.16100
C2803       C  0.59614732  0.12535330  0.86861659    -0.11200
C2804       C  0.57739635  0.12699758  0.87933667     0.15300
C2805       C  0.54309440  0.09771466  0.88220472     0.02200
C2806       C  0.52756539  0.06820750  0.87396731    -0.15600
C2807       C  0.54457511  0.06765273  0.86248879    -0.10400
C2808       C  0.58064386  0.09580580  0.86030398     0.08900
C2809       C  0.59350911  0.16011285  0.88707516     0.10000
S2810       S  0.01749270  0.09695340  0.89564240    -0.24700
H2811       H  0.00128639  0.04659077  0.87598040     0.20200
S2812       S  0.60981576  0.09605417  0.84774864    -0.30400
H2813       H  0.62310250  0.14740567  0.86669882     0.10500
C2814       C  0.61200541  0.16329119  0.89861141     0.03700
C2815       C  0.62440000  0.19444196  0.90606326    -0.12700
C2816       C  0.61849243  0.22234483  0.90218105    -0.08400
C2817       C  0.59959480  0.21872894  0.89061261     0.07200
C2818       C  0.58800953  0.18803682  0.88308797    -0.13500
S2819       S  0.61982636  0.12773773  0.90376863    -0.30400
H2820       H  0.63897844  0.19724205  0.91488657     0.11400
S2821       S  0.58713871  0.25095704  0.88533624    -0.27500
H2822       H  0.57315597  0.18513941  0.87430952     0.08700
H2823       H  0.58786705  0.06086452  0.84347383     0.27100
H2824       H  0.63689194  0.14364091  0.91544442     0.21900
H2825       H  0.57921220  0.25827627  0.89768969     0.27200
H2826       H  0.52797668  0.13336927  0.89589528     0.16100
C2827       C  0.79263735  0.38141400  0.77386022    -0.11200
C2828       C  0.79188764  0.40293976  0.76394392     0.15300
C2829       C  0.76131802  0.40688441  0.76238426     0.02200
C2830       C  0.73247940  0.38967463  0.77090884    -0.15600
C2831       C  0.73350007  0.36902026  0.78117005    -0.10400
C2832       C  0.76354396  0.36377396  0.78229741     0.08900
C2833       C  0.82277672  0.41947091  0.75506849     0.10000
S2834       S  0.75696790  0.43293844  0.74968425    -0.24700
H2835       H  0.70938284  0.39342946  0.76976036     0.20200
S2836       S  0.76566689  0.33307522  0.79346147    -0.30400
H2837       H  0.81572622  0.37756109  0.77479985     0.10500
C2838       C  0.85272035  0.45357393  0.75755535     0.03700
C2839       C  0.88204980  0.46786027  0.74907575    -0.12700
C2840       C  0.88211792  0.44852745  0.73820894    -0.08400
C2841       C  0.85140848  0.41470690  0.73557882     0.07200
C2842       C  0.82229616  0.40040758  0.74411578    -0.13500
S2843       S  0.85344443  0.47870095  0.77155201    -0.30400
H2844       H  0.90544713  0.49380356  0.75109383     0.11400
S2845       S  0.84702810  0.38908864  0.72132647    -0.27500
H2846       H  0.79892390  0.37434111  0.74216912     0.08700
H2847       H  0.72827040  0.31157031  0.79466353     0.27100
H2848       H  0.89088228  0.00035169  0.77147288     0.21900
H2849       H  0.86523640  0.41909393  0.71325454     0.27200
H2850       H  0.79395303  0.45673494  0.74774687     0.16100
C2851       C  0.61552245  0.41234206  0.77174317    -0.11200
C2852       C  0.59481263  0.38928118  0.76184591     0.15300
C2853       C  0.59218483  0.35552507  0.76073120     0.02200
C2854       C  0.60922904  0.34520777  0.76983318    -0.15600
C2855       C  0.62881456  0.36732785  0.78026327    -0.10400
C2856       C  0.63322182  0.40247012  0.78076665     0.08900
C2857       C  0.57728523  0.40207045  0.75273274     0.10000
S2858       S  0.56706270  0.32393492  0.74813010    -0.24700
H2859       H  0.60709496  0.31936003  0.76863026     0.20200
S2860       S  0.66257449  0.43826770  0.79147934    -0.30400
H2861       H  0.61845379  0.43882642  0.77228600     0.10500
C2862       C  0.54162221  0.39477841  0.75459518     0.03700
C2863       C  0.52725774  0.41026913  0.74634607    -0.12700
C2864       C  0.54801277  0.43301705  0.73630429    -0.08400
C2865       C  0.58314938  0.43861395  0.73409767     0.07200
C2866       C  0.59756402  0.42362695  0.74245377    -0.13500
S2867       S  0.51511122  0.36704320  0.76781463    -0.30400
H2868       H  0.50034598  0.40585824  0.74804159     0.11400
S2869       S  0.61066439  0.46383308  0.72065424    -0.27500
H2870       H  0.62482664  0.42873548  0.74093707     0.08700
H2871       H  0.67709217  0.42059572  0.79803889     0.27100
H2872       H  0.98398875  0.37443426  0.76630801     0.21900
H2873       H  0.58153511  0.45313295  0.71209883     0.27200
H2874       H  0.56839567  0.34867346  0.73908404     0.16100
C2875       C  0.61338134  0.16714522  0.74969790    -0.11200
C2876       C  0.59612470  0.16508143  0.76137427     0.15300
C2877       C  0.56341904  0.13338086  0.76434577     0.02200
C2878       C  0.54799648  0.10547808  0.75536798    -0.15600
C2879       C  0.56474708  0.10793275  0.74355354    -0.10400
C2880       C  0.59808030  0.13904781  0.74076973     0.08900
C2881       C  0.60964891  0.19809189  0.76924677     0.10000
S2882       S  0.53954922  0.12692229  0.77929116    -0.24700
H2883       H  0.52264025  0.08153244  0.75763388     0.20200
S2884       S  0.62108606  0.14571668  0.72565842    -0.30400
H2885       H  0.63800854  0.19161736  0.74722849     0.10500
C2886       C  0.64404531  0.21531651  0.77507798     0.03700
C2887       C  0.65525413  0.24711211  0.78209003    -0.12700
C2888       C  0.63257084  0.26173581  0.78364358    -0.08400
C2889       C  0.59754630  0.24338306  0.77805822     0.07200
C2890       C  0.58710484  0.21263770  0.77073302    -0.13500
S2891       S  0.67311954  0.19623921  0.77397292    -0.30400
H2892       H  0.68165269  0.26041353  0.78649344     0.11400
S2893       S  0.56323467  0.25526340  0.78023243    -0.27500
H2894       H  0.56056565  0.19932414  0.76630104     0.08700
H2895       H  0.58953252  0.12897161  0.71811967     0.27100
H2896       H  0.70130533  0.22199761  0.78164503     0.21900
H2897       H  0.58440016  0.28435563  0.78801393     0.27200
H2898       H  0.56886543  0.15285687  0.78646317     0.16100
C2899       C  0.57411961  0.38321729  0.80976049    -0.11200
C2900       C  0.59223465  0.41117215  0.81857215     0.15300
C2901       C  0.62489655  0.41590794  0.82400906     0.02200
C2902       C  0.63992448  0.39506491  0.81949620    -0.15600
C2903       C  0.62235608  0.36827042  0.81003636    -0.10400
C2904       C  0.58747873  0.36089931  0.80612466     0.08900
C2905       C  0.57306279  0.43093115  0.82263375     0.10000
S2906       S  0.64847049  0.44748314  0.83674851    -0.24100
H2907       H  0.66613643  0.40079012  0.82302096     0.20200
S2908       S  0.55632589  0.32124332  0.79764161    -0.30400
H2909       H  0.54809817  0.37758945  0.80602991     0.10500
C2910       C  0.58695635  0.46820133  0.82084716     0.03700
C2911       C  0.56602625  0.48396267  0.82452038    -0.12700
C2912       C  0.53105218  0.46316592  0.82965502    -0.08400
C2913       C  0.51620891  0.42554029  0.83011044     0.07200
C2914       C  0.53744326  0.41022990  0.82702990    -0.13500
S2915       S  0.63093171  0.49564721  0.81377478    -0.30400
H2916       H  0.57892579  0.01360693  0.82440078     0.11400
S2917       S  0.96929844  0.39634504  0.83422899    -0.27500
H2918       H  0.52593919  0.38148625  0.82785611     0.08700
H2919       H  0.56301377  0.29958057  0.80595208     0.27100
H2920       H  0.63364040  0.02954881  0.81580083     0.21900
H2921       H  0.96952760  0.36381257  0.83414926     0.27200
H2922       H  0.61806028  0.44758180  0.84179732     0.16100
C2923       C  0.86487746  0.46616911  0.83039734    -0.11200
C2924       C  0.85088186  0.43293309  0.82420042     0.15300
C2925       C  0.87523093  0.42075309  0.82106555     0.02200
C2926       C  0.91171245  0.44038935  0.82511423    -0.15600
C2927       C  0.92514633  0.47272272  0.83200181    -0.10400
C2928       C  0.90142998  0.48634957  0.83390667     0.08900
C2929       C  0.81191553  0.41416913  0.81999438     0.10000
S2930       S  0.86138281  0.38049925  0.81189619    -0.24700
H2931       H  0.92937481  0.42966275  0.82326679     0.20200
S2932       S  0.91825843  0.03175585  0.83824093    -0.30400
H2933       H  0.84724531  0.47699276  0.83224867     0.10500
C2934       C  0.78467676  0.38158929  0.82533056     0.03700
C2935       C  0.74872633  0.36542791  0.82057676    -0.12700
C2936       C  0.73914739  0.38076083  0.81044376    -0.08400
C2937       C  0.76605206  0.41583007  0.80636928     0.07200
C2938       C  0.80161647  0.43127528  0.81094781    -0.13500
S2939       S  0.79559780  0.36088453  0.83828427    -0.30400
H2940       H  0.72832717  0.34016422  0.82448640     0.11400
S2941       S  0.75801388  0.44489029  0.79615789    -0.27500
H2942       H  0.82179591  0.45737724  0.80738193     0.08700
H2943       H  0.95123981  0.04536136  0.83163676     0.27100
H2944       H  0.76020963  0.33245322  0.84034786     0.21900
H2945       H  0.72343593  0.41998298  0.79232405     0.27200
H2946       H  0.83789481  0.38547053  0.80383737     0.16100
C2947       C  0.62989870  0.20961980  0.82002455    -0.11200
C2948       C  0.59210082  0.18860896  0.81898853     0.15300
C2949       C  0.57291093  0.20545784  0.81461078     0.02200
C2950       C  0.59149691  0.24218115  0.81156664    -0.15600
C2951       C  0.62942484  0.26291522  0.81192047    -0.10400
C2952       C  0.64867646  0.24606129  0.81626163     0.08900
C2953       C  0.57296105  0.15036970  0.82363793     0.10000
S2954       S  0.52476064  0.18105565  0.81187585    -0.24700
H2955       H  0.57619037  0.25404071  0.80798198     0.20200
S2956       S  0.69725077  0.27014650  0.81656678    -0.30400
H2957       H  0.64473857  0.19718899  0.82364235     0.10500
C2958       C  0.57747596  0.12286450  0.81807380     0.03700
C2959       C  0.55829523  0.08747371  0.82302980    -0.12700
C2960       C  0.53525072  0.07880251  0.83372843    -0.08400
C2961       C  0.52980010  0.10660579  0.83883635     0.07200
C2962       C  0.54897397  0.14146650  0.83389176    -0.13500
S2963       S  0.60801271  0.13278404  0.80477666    -0.30400
H2964       H  0.56284960  0.06689773  0.81900554     0.11400
S2965       S  0.49854091  0.10116447  0.85143161    -0.27500
H2966       H  0.54499673  0.16223730  0.83812600     0.08700
H2967       H  0.70184425  0.24145166  0.82049240     0.27100
H2968       H  0.59854662  0.09710852  0.80209707     0.21900
H2969       H  0.48075676  0.06398603  0.85194381     0.27200
H2970       H  0.52272671  0.14843311  0.80855150     0.16100
C2971       C  0.93347124  0.33035690  0.23043325    -0.11200
C2972       C  0.91610300  0.33182914  0.21923773     0.15300
C2973       C  0.91172188  0.36178407  0.21709988     0.02200
C2974       C  0.92447091  0.38939677  0.22620846    -0.15600
C2975       C  0.94210787  0.38815154  0.23740775    -0.10400
C2976       C  0.94617223  0.35790872  0.23957360     0.08900
C2977       C  0.89925118  0.30001286  0.21071987     0.10000
S2978       S  0.89001544  0.36620114  0.20295495    -0.24700
H2979       H  0.92132043  0.41245332  0.22438571     0.20200
S2980       S  0.46588918  0.35261482  0.25372543    -0.30400
H2981       H  0.93601473  0.30694979  0.23226506     0.10500
C2982       C  0.91932720  0.29310562  0.20160423     0.03700
C2983       C  0.90165879  0.26253482  0.19372111    -0.12700
C2984       C  0.86432371  0.23860058  0.19487894    -0.08400
C2985       C  0.84460160  0.24575170  0.20413863     0.07200
C2986       C  0.86216796  0.27615455  0.21191921    -0.13500
S2987       S  0.96734138  0.32318358  0.20009399    -0.30400
H2988       H  0.91695603  0.25690691  0.18676836     0.11400
S2989       S  0.79671867  0.21802720  0.20617379    -0.27500
H2990       H  0.84672232  0.28148708  0.21892696     0.08700
H2991       H  0.45096665  0.36835710  0.26163467     0.27100
H2992       H  0.97280774  0.30501432  0.18989939     0.21900
H2993       H  0.79077648  0.21379711  0.19292270     0.27200
H2994       H  0.90115660  0.34772795  0.19472134     0.16100
C2995       C  0.87863145  0.09059733  0.20571617    -0.11200
C2996       C  0.90786983  0.11551474  0.21303840     0.15300
C2997       C  0.91900511  0.15231927  0.21193732     0.02200
C2998       C  0.90058207  0.16311148  0.20349711    -0.15600
C2999       C  0.87085883  0.13798045  0.19623931    -0.10400
C3000       C  0.85937050  0.10102813  0.19775257     0.08900
C3001       C  0.92475609  0.10121798  0.22191576     0.10000
S3002       S  0.95588792  0.18663429  0.22113158    -0.24700
H3003       H  0.90931369  0.19139294  0.20265835     0.20200
S3004       S  0.81880798  0.06483467  0.19104949    -0.30400
H3005       H  0.86973487  0.06228142  0.20665375     0.10500
C3006       C  0.90483335  0.07863290  0.23218372     0.03700
C3007       C  0.91940986  0.06130425  0.23931484    -0.12700
C3008       C  0.95373017  0.06624210  0.23653016    -0.08400
C3009       C  0.97393126  0.08939976  0.22635745     0.07200
C3010       C  0.95930469  0.10671963  0.21921664    -0.13500
S3011       S  0.86086478  0.07214915  0.23630213    -0.30400
H3012       H  0.90414156  0.04404428  0.24720929     0.11400
S3013       S  0.01741068  0.09628432  0.22149431    -0.27500
H3014       H  0.97434142  0.12349227  0.21117898     0.08700
H3015       H  0.80627256  0.08691603  0.18666555     0.27100
H3016       H  0.85380754  0.04837468  0.24656662     0.21900
H3017       H  0.00912974  0.06081029  0.22385308     0.27200
H3018       H  0.95268087  0.16492556  0.23167141     0.16100
C3019       C  0.64955250  0.04098135  0.22268924    -0.11200
C3020       C  0.67586816  0.07723266  0.22408737     0.15300
C3021       C  0.67235821  0.09776597  0.23392459     0.02200
C3022       C  0.64197196  0.08196380  0.24184682    -0.15600
C3023       C  0.61517777  0.04579213  0.24036827    -0.10400
C3024       C  0.61944189  0.02496924  0.23078014     0.08900
C3025       C  0.70509725  0.09368667  0.21452935     0.10000
S3026       S  0.70497533  0.14451516  0.23656777    -0.24700
H3027       H  0.63905921  0.09818404  0.24918302     0.20200
S3028       S  0.58572369  0.97908088  0.22757845    -0.30400
H3029       H  0.65206411  0.02533610  0.21503155     0.10500
C3030       C  0.73586320  0.08998827  0.21533356     0.03700
C3031       C  0.76364973  0.10757573  0.20638430    -0.12700
C3032       C  0.76108343  0.12823748  0.19643219    -0.08400
C3033       C  0.72991805  0.13185751  0.19568647     0.07200
C3034       C  0.70232125  0.11439793  0.20474506    -0.13500
S3035       S  0.74015997  0.06373861  0.22798146    -0.30400
H3036       H  0.78746968  0.10494954  0.20706299     0.11400
S3037       S  0.72557672  0.16062475  0.18410447    -0.27500
H3038       H  0.67870630  0.11748903  0.20443507     0.08700
H3039       H  0.59031702  0.96703971  0.23959120     0.27100
H3040       H  0.77407315  0.06889180  0.22426810     0.21900
H3041       H  0.68838325  0.14747035  0.18581617     0.27200
H3042       H  0.73517892  0.14337358  0.23187433     0.16100
C3043       C  0.54812721  0.36226787  0.33655886    -0.11200
C3044       C  0.56176328  0.39885371  0.33421400     0.15300
C3045       C  0.58651855  0.42437246  0.34303090     0.02200
C3046       C  0.60006310  0.41298893  0.35312844    -0.15600
C3047       C  0.58863427  0.37654092  0.35479874    -0.10400
C3048       C  0.56100080  0.35087649  0.34680856     0.08900
C3049       C  0.55109217  0.40943032  0.32216311     0.10000
S3050       S  0.60306994  0.47182874  0.34155252    -0.24700
H3051       H  0.62118378  0.43283655  0.35922739     0.20200
S3052       S  0.54230175  0.30321765  0.34890901    -0.30400
H3053       H  0.52830778  0.34249322  0.33007404     0.10500
C3054       C  0.57584748  0.42621732  0.31203086     0.03700
C3055       C  0.56493670  0.43713074  0.30101965    -0.12700
C3056       C  0.52973632  0.43146279  0.29992812    -0.08400
C3057       C  0.50436983  0.41239122  0.30973330     0.07200
C3058       C  0.51536198  0.40182796  0.32073225    -0.13500
S3059       S  0.62136509  0.43387650  0.31314099    -0.30400
H3060       H  0.58431127  0.45159797  0.29351116     0.11400
S3061       S  0.45755978  0.40073587  0.30879424    -0.27500
H3062       H  0.49601594  0.38795938  0.32832608     0.08700
H3063       H  0.54976313  0.30488454  0.36211979     0.27100
H3064       H  0.63386103  0.45227001  0.30144858     0.21900
H3065       H  0.45522409  0.39789602  0.29534022     0.27200
H3066       H  0.57256577  0.46851537  0.33516066     0.16100
C3067       C  0.58337601  0.16765501  0.30487548    -0.11200
C3068       C  0.60059535  0.16141521  0.31518924     0.15300
C3069       C  0.60310673  0.13008833  0.31547131     0.02200
C3070       C  0.58662056  0.10465861  0.30578617    -0.15600
C3071       C  0.56796784  0.11000026  0.29573016    -0.10400
C3072       C  0.56669108  0.14208516  0.29517913     0.08900
C3073       C  0.61185076  0.18595314  0.32619274     0.10000
S3074       S  0.62567341  0.12045457  0.32816831    -0.24700
H3075       H  0.58776265  0.08008765  0.30622263     0.20200
S3076       S  0.54169924  0.15057477  0.28309858    -0.30400
H3077       H  0.58122146  0.19169070  0.30477307     0.10500
C3078       C  0.64345383  0.21965971  0.32578603     0.03700
C3079       C  0.65153564  0.24315215  0.33612011    -0.12700
C3080       C  0.62845078  0.23358534  0.34679791    -0.08400
C3081       C  0.59708081  0.19936457  0.34724911     0.07200
C3082       C  0.58937957  0.17574220  0.33699317    -0.13500
S3083       S  0.67335564  0.23257573  0.31213008    -0.30400
H3084       H  0.67571987  0.26933270  0.33582393     0.11400
S3085       S  0.56455540  0.18526282  0.36007488    -0.27500
H3086       H  0.56492116  0.14972346  0.33717930     0.08700
H3087       H  0.51233388  0.11523644  0.28273180     0.27100
H3088       H  0.69971149  0.26625483  0.31688677     0.21900
H3089       H  0.56547068  0.21829485  0.36108561     0.27200
H3090       H  0.65079755  0.15635655  0.33116073     0.16100
C3091       C  0.78720380  0.43985718  0.32704586    -0.11200
C3092       C  0.81526905  0.43216672  0.32609218     0.15300
C3093       C  0.82202912  0.41487015  0.33632512     0.02200
C3094       C  0.79855934  0.40279398  0.34679259    -0.15600
C3095       C  0.76885515  0.40819873  0.34735167    -0.10400
C3096       C  0.76398796  0.42826900  0.33761977     0.08900
C3097       C  0.83697491  0.44252022  0.31428385     0.10000
S3098       S  0.85931817  0.40638349  0.33642121    -0.24700
H3099       H  0.80263596  0.38771842  0.35426915     0.20200
S3100       S  0.72864179  0.43963005  0.33863411    -0.30400
H3101       H  0.78312138  0.45427872  0.31933658     0.10500
C3102       C  0.83462901  0.41670754  0.30540204     0.03700
C3103       C  0.85865927  0.42777453  0.29502637    -0.12700
C3104       C  0.88459724  0.46406833  0.29343920    -0.08400
C3105       C  0.88461879  0.49002727  0.30174083     0.07200
C3106       C  0.86095654  0.47895935  0.31211257    -0.13500
S3107       S  0.80188382  0.36974120  0.30752020    -0.30400
H3108       H  0.85885142  0.40800063  0.28865016     0.11400
S3109       S  0.91583640  0.03722612  0.29937490    -0.27500
H3110       H  0.86199093  0.49879861  0.31877616     0.08700
H3111       H  0.73538630  0.45740204  0.32677712     0.27100
H3112       H  0.81091182  0.35734754  0.29642371     0.21900
H3113       H  0.91985524  0.03618565  0.28601653     0.27200
H3114       H  0.88270581  0.43594116  0.32882881     0.16100
C3115       C  0.78142292  0.99547540  0.41967638    -0.11200
C3116       C  0.76009501  0.99719027  0.42951121     0.15300
C3117       C  0.72342549  0.47048304  0.43023180     0.02200
C3118       C  0.70796153  0.44308838  0.42109141    -0.15600
C3119       C  0.72825945  0.44179567  0.41072846    -0.10400
C3120       C  0.76523833  0.46850431  0.40972465     0.08900
C3121       C  0.77471639  0.03049395  0.43704815     0.10000
S3122       S  0.69527363  0.46991963  0.44321850    -0.24700
H3123       H  0.67986960  0.42245063  0.42214322     0.20200
S3124       S  0.79370611  0.47095753  0.39655372    -0.30400
H3125       H  0.80934366  0.01667633  0.41876370     0.10500
C3126       C  0.79998632  0.03862827  0.44694081     0.03700
C3127       C  0.81361730  0.07132210  0.45344712    -0.12700
C3128       C  0.80137780  0.09537422  0.45062328    -0.08400
C3129       C  0.77629227  0.08716131  0.44054195     0.07200
C3130       C  0.76336106  0.05484300  0.43386343    -0.13500
S3131       S  0.81400412  0.00701750  0.45150865    -0.30400
H3132       H  0.83390373  0.07814432  0.46077262     0.11400
S3133       S  0.75961863  0.11679843  0.43623400    -0.27500
H3134       H  0.74410939  0.04822277  0.42611999     0.08700
H3135       H  0.76699377  0.46215198  0.38710809     0.27100
H3136       H  0.83365086  0.02560974  0.46249324     0.21900
H3137       H  0.73592984  0.09555618  0.42641753     0.27200
H3138       H  0.72273416  0.98745905  0.45249993     0.16100
C3139       C  0.99826910  0.22389236  0.41498088    -0.11200
C3140       C  0.00107887  0.23929711  0.42709547     0.15300
C3141       C  0.53214201  0.26758361  0.43032756     0.02200
C3142       C  0.56036830  0.28353100  0.42150289    -0.15600
C3143       C  0.55715424  0.26897772  0.40921994    -0.10400
C3144       C  0.52488448  0.23744200  0.40575484     0.08900
C3145       C  0.96833348  0.22528802  0.43517449     0.10000
S3146       S  0.53997840  0.28716175  0.44611150    -0.24700
H3147       H  0.58536747  0.30721953  0.42432454     0.20200
S3148       S  0.51783216  0.21685743  0.39014661    -0.30400
H3149       H  0.97298155  0.20065218  0.41210744     0.10500
C3150       C  0.94945252  0.24414071  0.43638785     0.03700
C3151       C  0.91874053  0.23023388  0.44418655    -0.12700
C3152       C  0.90619461  0.19775727  0.45076635    -0.08400
C3153       C  0.92513827  0.17876404  0.44949410     0.07200
C3154       C  0.95582407  0.19268970  0.44164588    -0.13500
S3155       S  0.96399519  0.28554707  0.42778230    -0.30400
H3156       H  0.90490382  0.24525434  0.44543490     0.11400
S3157       S  0.91166406  0.13633628  0.45717066    -0.27500
H3158       H  0.97029616  0.17813671  0.44063701     0.08700
H3159       H  0.53774322  0.24910374  0.38332288     0.27100
H3160       H  0.93688551  0.29214240  0.43232131     0.21900
H3161       H  0.88821116  0.13688565  0.46637379     0.27200
H3162       H  0.51524568  0.25565918  0.45256008     0.16100
C3163       C  0.77415823  0.28578535  0.42143558    -0.11200
C3164       C  0.76321044  0.24937989  0.42007487     0.15300
C3165       C  0.73684757  0.22855712  0.41080089     0.02200
C3166       C  0.72125716  0.24431251  0.40336678    -0.15600
C3167       C  0.73181048  0.28070350  0.40481552    -0.10400
C3168       C  0.75861212  0.30159208  0.41402029     0.08900
C3169       C  0.77704227  0.23314323  0.42933305     0.10000
S3170       S  0.72180339  0.18175515  0.40808978    -0.24700
H3171       H  0.70088767  0.22806920  0.39632245     0.20200
S3172       S  0.77227243  0.34770706  0.41749863    -0.30400
H3173       H  0.79389398  0.30162117  0.42872116     0.10500
C3174       C  0.81271902  0.23975631  0.42879019     0.03700
C3175       C  0.82434911  0.22365533  0.43783933    -0.12700
C3176       C  0.80144137  0.20154137  0.44760757    -0.08400
C3177       C  0.76523421  0.19439232  0.44788847     0.07200
C3178       C  0.75372711  0.21061507  0.43884934    -0.13500
S3179       S  0.84304301  0.26783194  0.41635079    -0.30400
H3180       H  0.85158323  0.22826757  0.43724074     0.11400
S3181       S  0.73240408  0.16270481  0.45892143    -0.27500
H3182       H  0.72617594  0.20546851  0.43903934     0.08700
H3183       H  0.73715457  0.34268013  0.41675459     0.27100
H3184       H  0.87353426  0.26624401  0.42049954     0.21900
H3185       H  0.70261567  0.16560095  0.45483447     0.27200
H3186       H  0.75426636  0.18342582  0.41177004     0.16100
Zn3187     Zn  0.71924044  0.86089676  0.38383993     1.49700
Zn3188     Zn  0.64589096  0.78542139  0.38436982     1.49400
Zn3189     Zn  0.64293299  0.85837534  0.38803798     1.49100
Zn3190     Zn  0.66311895  0.83945272  0.36161976     1.49500
O3191       O  0.66774250  0.83601480  0.37975782    -1.84000
O3192       O  0.73331326  0.82806106  0.39260751    -0.74600
O3193       O  0.60155468  0.77015603  0.39523717    -0.74400
O3194       O  0.67832861  0.89955752  0.39916911    -0.73900
O3195       O  0.68087679  0.77743269  0.39483283    -0.74600
O3196       O  0.73003130  0.89966918  0.39658787    -0.74200
O3197       O  0.60388329  0.82199071  0.39953157    -0.74800
O3198       O  0.62587481  0.85174756  0.35714115    -0.74200
O3199       O  0.63324278  0.75381779  0.36861946    -0.75000
O3200       O  0.61780634  0.87477170  0.37504870    -0.74300
O3201       O  0.64952204  0.79384904  0.35298310    -0.74800
O3202       O  0.70895482  0.87551018  0.35362514    -0.74700
O3203       O  0.75051036  0.88396906  0.36813710    -0.74500
C3204       C  0.71465465  0.79641611  0.39704941     0.77300
C3205       C  0.58954745  0.78818062  0.40097743     0.77800
C3206       C  0.71176728  0.91226883  0.40173351     0.76700
C3207       C  0.61169151  0.86718793  0.36314093     0.77100
C3208       C  0.63738034  0.76186846  0.35675339     0.78200
C3209       C  0.74177240  0.88903975  0.35696381     0.77300
Zn3210     Zn  0.99483987  0.00177707  0.28458978     1.49700
Zn3211     Zn  0.95017898  0.97847345  0.25887954     1.49400
Zn3212     Zn  0.52756237  0.55024979  0.26013220     1.49100
Zn3213     Zn  0.52098222  0.97067169  0.26279467     1.49500
O3214       O  0.99887972  0.00029657  0.26630462    -1.84000
O3215       O  0.94602539  0.98943574  0.28977751    -0.74600
O3216       O  0.94455099  0.51427342  0.24838534    -0.74400
O3217       O  0.54809558  0.58554835  0.27492039    -0.73900
O3218       O  0.91134346  0.96321707  0.27275769    -0.74600
O3219       O  0.52820010  0.54877758  0.29161043    -0.74200
O3220       O  0.99875106  0.56359422  0.24903251    -0.74800
O3221       O  0.56805964  0.50324027  0.25220256    -0.74200
O3222       O  0.94096259  0.93592598  0.24776559    -0.75000
O3223       O  0.56971036  0.55546284  0.25005670    -0.74300
O3224       O  0.98982788  0.93092750  0.25086481    -0.74800
O3225       O  0.53125777  0.95031188  0.27904700    -0.74700
O3226       O  0.50625412  0.96789486  0.29386299    -0.74500
C3227       C  0.91519956  0.97269354  0.28451229     0.77300
C3228       C  0.96610426  0.54671083  0.24514523     0.77800
C3229       C  0.54660100  0.57998701  0.28695051     0.76700
C3230       C  0.58273080  0.53511495  0.24781915     0.77100
C3231       C  0.95909608  0.92023625  0.24564941     0.78200
C3232       C  0.52177035  0.95058110  0.29062872     0.77300
C3233       C  0.66518437  0.83680876  0.80961561     0.45600
H3234       H  0.66592571  0.83872106  0.82023826    -0.03400
C3235       C  0.66304659  0.83162216  0.78472248     0.45700
H3236       H  0.66243894  0.82901280  0.77411900    -0.03400
C3237       C  0.64293871  0.85266598  0.80316162    -0.17100
C3238       C  0.70369652  0.85742753  0.80309162    -0.16900
C3239       C  0.64708361  0.79710898  0.80449243    -0.17200
C3240       C  0.64417426  0.85171381  0.78988485    -0.17200
C3241       C  0.70149650  0.85237233  0.78994943    -0.16800
C3242       C  0.64583597  0.79513916  0.79137263    -0.17100
C3243       C  0.99947580  0.99906406  0.85761284     0.45600
H3244       H  0.99906150  0.99591612  0.86819173    -0.03400
C3245       C  0.99972689  0.00490320  0.83273430     0.45700
H3246       H  0.99976490  0.00724259  0.82213380    -0.03400
C3247       C  0.52275801  0.53770233  0.85280697    -0.17100
C3248       C  0.51487983  0.97896831  0.85098762    -0.16900
C3249       C  0.96161507  0.98544306  0.85182208    -0.17200
C3250       C  0.52061902  0.54185549  0.83973956    -0.17200
C3251       C  0.51596123  0.98181266  0.83784457    -0.16800
C3252       C  0.96106773  0.98762986  0.83867876    -0.17100
C3253       C  0.67050147  0.83666103  0.49885065     0.45600
H3254       H  0.67115674  0.83832063  0.48823779    -0.03400
C3255       C  0.66750870  0.83180774  0.52375232     0.45700
H3256       H  0.66572600  0.82907271  0.53436045    -0.03400
C3257       C  0.69022933  0.81721932  0.50463219    -0.17100
C3258       C  0.68859226  0.87397803  0.50579686    -0.16900
C3259       C  0.63108938  0.81645473  0.50425842    -0.17200
C3260       C  0.68668140  0.81367287  0.51776577    -0.17200
C3261       C  0.68836415  0.87069476  0.51903717    -0.16800
C3262       C  0.63041359  0.81507319  0.51738259    -0.17100
C3263       C  0.83291131  0.66792627  0.47735612     0.45600
H3264       H  0.83229680  0.66925204  0.48796865    -0.03400
C3265       C  0.83482883  0.66513278  0.45238268     0.45700
H3266       H  0.83621499  0.66407508  0.44176146    -0.03400
C3267       C  0.81520396  0.68748258  0.47045953    -0.17100
C3268       C  0.87208349  0.68643539  0.47180775    -0.16900
C3269       C  0.81298792  0.62878591  0.47167595    -0.17200
C3270       C  0.81572340  0.68506418  0.45724788    -0.17200
C3271       C  0.87218971  0.68353033  0.45866645    -0.16800
C3272       C  0.81472885  0.62816729  0.45852231    -0.17100
Zn3273     Zn  0.78442758  0.64028077  0.59135849     1.49700
Zn3274     Zn  0.85996307  0.63931277  0.59230024     1.49400
Zn3275     Zn  0.85987080  0.71449140  0.59099613     1.49100
Zn3276     Zn  0.83362558  0.66613920  0.61548683     1.49500
O3277       O  0.83461340  0.66504015  0.59720549    -1.84000
O3278       O  0.77593605  0.59794820  0.58088229    -0.74600
O3279       O  0.90010731  0.67001590  0.58004931    -0.74400
O3280       O  0.82719222  0.72308870  0.57944164    -0.73900
O3281       O  0.82567013  0.59388753  0.58278232    -0.74600
O3282       O  0.77430431  0.67236778  0.58007917    -0.74200
O3283       O  0.90312762  0.72324591  0.58056596    -0.74800
O3284       O  0.85083327  0.71436536  0.62217261    -0.74200
O3285       O  0.88309254  0.62847689  0.60770157    -0.75000
O3286       O  0.87603949  0.75068559  0.60554889    -0.74300
O3287       O  0.86601292  0.65196625  0.62319401    -0.74800
O3288       O  0.78562426  0.63412361  0.62263950    -0.74700
O3289       O  0.74838615  0.62061835  0.60606568    -0.74500
C3290       C  0.79377998  0.58226682  0.57844704     0.77300
C3291       C  0.91461743  0.70274121  0.57665118     0.77800
C3292       C  0.79428537  0.70426237  0.57597873     0.76700
C3293       C  0.86890791  0.74553739  0.61747373     0.77100
C3294       C  0.88339134  0.63704356  0.61943464     0.78200
C3295       C  0.75403842  0.61881632  0.61796373     0.77300
Zn3296     Zn  0.49775138  0.50716016  0.69334621     1.49700
Zn3297     Zn  0.97806105  0.53114729  0.71895827     1.49400
Zn3298     Zn  0.97008796  0.95128196  0.71547642     1.49100
Zn3299     Zn  0.54942030  0.52314683  0.71673592     1.49500
O3300       O  0.49880929  0.50311462  0.71155875    -1.84000
O3301       O  0.98353427  0.54321621  0.68791383    -0.74600
O3302       O  0.93156151  0.99594806  0.72811682    -0.74400
O3303       O  0.95224858  0.91995187  0.69935334    -0.73900
O3304       O  0.96684703  0.55925984  0.70569056    -0.74600
O3305       O  0.96450787  0.96129101  0.68456815    -0.74200
O3306       O  0.92635920  0.94203191  0.72594313    -0.74800
O3307       O  0.55527305  0.98572180  0.72638244    -0.74200
O3308       O  0.51349864  0.56653917  0.73163589    -0.75000
O3309       O  0.50079015  0.93658549  0.72608498    -0.74300
O3310       O  0.56444809  0.56508974  0.72887495    -0.74800
O3311       O  0.58367863  0.53848388  0.70146102    -0.74700
O3312       O  0.54426063  0.52025054  0.68544340    -0.74500
C3313       C  0.97200167  0.56141262  0.69361530     0.77300
C3314       C  0.91481869  0.96224975  0.73019179     0.77800
C3315       C  0.95088467  0.92871238  0.68777463     0.76700
C3316       C  0.53404089  0.95301346  0.72933595     0.77100
C3317       C  0.54673915  0.57818780  0.73419105     0.78200
C3318       C  0.57633816  0.53357076  0.68952975     0.77300
C3319       C  0.83100053  0.66628386  0.16790077     0.45600
H3320       H  0.83008921  0.66480171  0.15729033    -0.03400
C3321       C  0.83252904  0.66878667  0.19286879     0.45700
H3322       H  0.83339530  0.67004993  0.20352130    -0.03400
C3323       C  0.79262891  0.64456985  0.17409408    -0.17100
C3324       C  0.85322011  0.65031805  0.17416346    -0.16900
C3325       C  0.84806465  0.70540888  0.17346332    -0.17200
C3326       C  0.79402663  0.64710873  0.18731670    -0.17200
C3327       C  0.85348767  0.65165206  0.18734805    -0.16800
C3328       C  0.84889655  0.70579907  0.18667492    -0.17100
C3329       C  0.99723061  0.49846931  0.11922747     0.45600
H3330       H  0.99771173  0.49865988  0.10856535    -0.03400
C3331       C  0.99601304  0.49847341  0.14420736     0.45700
H3332       H  0.99570113  0.49710617  0.15477691    -0.03400
C3333       C  0.97764038  0.51695648  0.12484261    -0.17100
C3334       C  0.97958632  0.96204722  0.12561936    -0.16900
C3335       C  0.53551807  0.52009152  0.12551079    -0.17200
C3336       C  0.97553768  0.51672988  0.13816600    -0.17200
C3337       C  0.97694476  0.96120659  0.13876039    -0.16800
C3338       C  0.53567316  0.52075621  0.13868279    -0.17100
Zn3339     Zn  0.63567764  0.85468263  0.93573449     1.49700
Zn3340     Zn  0.66504111  0.83389088  0.91126701     1.49400
Zn3341     Zn  0.71530377  0.86572289  0.93612043     1.49100
Zn3342     Zn  0.64707563  0.78678379  0.93650891     1.49500
O3343       O  0.66585337  0.83529916  0.92991540    -1.84000
O3344       O  0.61289732  0.86679148  0.92102030    -0.74600
O3345       O  0.71485089  0.86537989  0.90408775    -0.74400
O3346       O  0.71853316  0.90384144  0.94801890    -0.73900
O3347       O  0.63173200  0.84977773  0.90410761    -0.74600
O3348       O  0.66344184  0.89701327  0.94730773    -0.74200
O3349       O  0.74945006  0.88829550  0.92139943    -0.74800
O3350       O  0.68387179  0.78337601  0.94722438    -0.74200
O3351       O  0.64618932  0.78382708  0.90478866    -0.75000
O3352       O  0.73209210  0.83784958  0.94685677    -0.74300
O3353       O  0.63142777  0.75022318  0.92234651    -0.74800
O3354       O  0.60553799  0.77343597  0.94839134    -0.74700
O3355       O  0.59635933  0.81970758  0.94717252    -0.74500
C3356       C  0.61288183  0.86215225  0.90896204     0.77300
C3357       C  0.74563837  0.88506874  0.90927307     0.77800
C3358       C  0.69538326  0.91209720  0.95182571     0.76700
C3359       C  0.71603266  0.80544097  0.95068627     0.77100
C3360       C  0.63294523  0.75336391  0.91019415     0.78200
C3361       C  0.58853050  0.78931530  0.95173675     0.77300
Zn3362     Zn  0.86098565  0.71816948  0.03991775     1.49700
Zn3363     Zn  0.83244473  0.66759393  0.06437073     1.49400
Zn3364     Zn  0.78149126  0.64873507  0.04003278     1.49100
Zn3365     Zn  0.85186359  0.64033558  0.03918408     1.49500
O3366       O  0.83154767  0.66868092  0.04582245    -1.84000
O3367       O  0.87866844  0.75330172  0.05462812    -0.74600
O3368       O  0.78276434  0.64624987  0.07169543    -0.74400
O3369       O  0.77764282  0.68239515  0.02748561    -0.73900
O3370       O  0.85949051  0.71711034  0.07151785    -0.74600
O3371       O  0.83255785  0.73052945  0.02791132    -0.74200
O3372       O  0.74705633  0.63760132  0.05499867    -0.74800
O3373       O  0.81496790  0.59859670  0.02891421    -0.74200
O3374       O  0.85585947  0.64031271  0.07083716    -0.75000
O3375       O  0.76568575  0.60329812  0.02997463    -0.74300
O3376       O  0.87143999  0.62278574  0.05321139    -0.74800
O3377       O  0.89211889  0.66910471  0.02705296    -0.74700
O3378       O  0.90236424  0.72468793  0.02886698    -0.74500
C3379       C  0.87543194  0.74840187  0.06671222     0.77300
C3380       C  0.75176494  0.63701938  0.06705717     0.77800
C3381       C  0.80067384  0.71346033  0.02339544     0.76700
C3382       C  0.78212042  0.58735902  0.02596654     0.77100
C3383       C  0.87056371  0.62440337  0.06537080     0.78200
C3384       C  0.90929369  0.70190575  0.02380548     0.77300
C3385       C  0.80485706  0.76432079  0.99309837    -0.11200
C3386       C  0.76965429  0.75860908  0.99259058     0.15300
C3387       C  0.74467101  0.73817981  0.00226029     0.02200
C3388       C  0.75542994  0.72380821  0.01221024    -0.15600
C3389       C  0.79072752  0.72951235  0.01277300    -0.10400
C3390       C  0.81549809  0.74951498  0.00290888     0.08900
C3391       C  0.75894438  0.77173259  0.98129909     0.10000
S3392       S  0.69859925  0.72901535  0.00233522    -0.24700
H3393       H  0.73613565  0.70821874  0.01961532     0.20200
S3394       S  0.85997794  0.75469795  0.00161751    -0.30400
H3395       H  0.82371781  0.77919866  0.98548512     0.10500
C3396       C  0.76906360  0.80808533  0.98000576     0.03700
C3397       C  0.75653154  0.81883681  0.96943520    -0.12700
C3398       C  0.73380469  0.79382887  0.96019594    -0.08400
C3399       C  0.72524225  0.75763848  0.96122849     0.07200
C3400       C  0.73791951  0.74705774  0.97179213    -0.13500
S3401       S  0.79616807  0.84027694  0.99219567    -0.30400
H3402       H  0.76298735  0.84650480  0.96871320     0.11400
S3403       S  0.69896178  0.72481609  0.94906057    -0.27500
H3404       H  0.73115959  0.71934949  0.97278554     0.08700
H3405       H  0.84894833  0.71915483  0.00517912     0.27100
H3406       H  0.79670247  0.87019965  0.98655941     0.21900
H3407       H  0.69567351  0.69462886  0.95549259     0.27200
H3408       H  0.70519872  0.76038163  0.99590240     0.16100
C3409       C  0.69325352  0.95404892  0.98346796    -0.11200
C3410       C  0.72642398  0.98612254  0.98316239     0.15300
C3411       C  0.74908304  0.99436151  0.97234871     0.02200
C3412       C  0.73828497  0.96997830  0.96215160    -0.15600
C3413       C  0.70504299  0.93781309  0.96244677    -0.10400
C3414       C  0.68252689  0.92960840  0.97333670     0.08900
C3415       C  0.73642438  0.51023091  0.99557016     0.10000
S3416       S  0.79066909  0.53625259  0.97197371    -0.24700
H3417       H  0.75586102  0.97617502  0.95391182     0.20200
S3418       S  0.64122084  0.88730918  0.97537287    -0.30400
H3419       H  0.67623843  0.94743369  0.99188889     0.10500
C3420       C  0.72272801  0.53313342  0.99833086     0.03700
C3421       C  0.73643330  0.55638646  0.00887676    -0.12700
C3422       C  0.76357553  0.55716654  0.01677001    -0.08400
C3423       C  0.77520997  0.53210600  0.01445202     0.07200
C3424       C  0.76194104  0.50940547  0.00378358    -0.13500
S3425       S  0.68949463  0.53432717  0.98794573    -0.30400
H3426       H  0.72723749  0.57532090  0.01056087     0.11400
S3427       S  0.80642424  0.52725788  0.02474342    -0.27500
H3428       H  0.77166509  0.49097760  0.00181949     0.08700
H3429       H  0.65458304  0.86625738  0.97000383     0.27100
H3430       H  0.68624299  0.56078522  0.99475020     0.21900
H3431       H  0.79333080  0.53408190  0.03615438     0.27200
H3432       H  0.78167047  0.55757962  0.97958712     0.16100
C3433       C  0.50882836  0.76739600  0.97329503    -0.11200
C3434       C  0.51638103  0.75161670  0.98369652     0.15300
C3435       C  0.54610513  0.74600470  0.98313715     0.02200
C3436       C  0.56797682  0.75677922  0.97223829    -0.15600
C3437       C  0.56109917  0.77349345  0.96191721    -0.10400
C3438       C  0.53061960  0.77808609  0.96236999     0.08900
C3439       C  0.98878411  0.73881362  0.99388730     0.10000
S3440       S  0.55770252  0.72555435  0.99599570    -0.24700
H3441       H  0.59144246  0.75338145  0.97205426     0.20200
S3442       S  0.51729039  0.79607257  0.94920129    -0.30400
H3443       H  0.98447732  0.77207264  0.97309453     0.10500
C3444       C  0.99078439  0.76247969  0.00357551     0.03700
C3445       C  0.96494289  0.74963591  0.01338677    -0.12700
C3446       C  0.93689228  0.71363319  0.01358502    -0.08400
C3447       C  0.93496357  0.69020084  0.00363671     0.07200
C3448       C  0.96131071  0.70292988  0.99409306    -0.13500
S3449       S  0.52866867  0.80858897  0.00439703    -0.30400
H3450       H  0.96647038  0.76774840  0.02088379     0.11400
S3451       S  0.89833971  0.64466133  0.00185193    -0.27500
H3452       H  0.95964487  0.68504924  0.98645963     0.08700
H3453       H  0.52919171  0.78158928  0.93954165     0.27100
H3454       H  0.51857976  0.81840812  0.01586893     0.21900
H3455       H  0.87116646  0.65348817  0.00389504     0.27200
H3456       H  0.54337274  0.73635488  0.00603365     0.16100
C3457       C  0.89027156  0.80861941  0.09538077    -0.11200
C3458       C  0.92269133  0.83918411  0.09196783     0.15300
C3459       C  0.93933643  0.84017013  0.08018732     0.02200
C3460       C  0.92294774  0.81049408  0.07200203    -0.15600
C3461       C  0.89048782  0.77963867  0.07540229    -0.10400
C3462       C  0.87367047  0.77908430  0.08717268     0.08900
C3463       C  0.93711552  0.87042487  0.10054536     0.10000
S3464       S  0.98096925  0.87861610  0.07494973    -0.24700
H3465       H  0.93601892  0.81126703  0.06300911     0.20200
S3466       S  0.83006912  0.74271207  0.09197237    -0.30400
H3467       H  0.87720938  0.80829667  0.10433103     0.10500
C3468       C  0.92900473  0.89785794  0.09856259     0.03700
C3469       C  0.94358613  0.92732685  0.10684792    -0.12700
C3470       C  0.96576175  0.92983488  0.11720186    -0.08400
C3471       C  0.97484550  0.90253930  0.11884394     0.07200
C3472       C  0.95955154  0.87274736  0.11070312    -0.13500
S3473       S  0.89987592  0.89520198  0.08552518    -0.30400
H3474       H  0.93752542  0.94839190  0.10526679     0.11400
S3475       S  0.50809909  0.90483590  0.12958960    -0.27500
H3476       H  0.96631469  0.85182613  0.11195447     0.08700
H3477       H  0.81483769  0.73658057  0.07960768     0.27100
H3478       H  0.89966534  0.92702842  0.08839108     0.21900
H3479       H  0.52597513  0.94199024  0.13149537     0.27200
H3480       H  0.99561099  0.89123945  0.08719065     0.16100
C3481       C  0.91346216  0.57016550  0.07717389    -0.11200
C3482       C  0.91988163  0.58055718  0.09010410     0.15300
C3483       C  0.91116791  0.60625828  0.09466561     0.02200
C3484       C  0.89536702  0.61982376  0.08632766    -0.15600
C3485       C  0.88752671  0.60845808  0.07348456    -0.10400
C3486       C  0.89684082  0.58312430  0.06890797     0.08900
C3487       C  0.93524028  0.56377056  0.09850754     0.10000
S3488       S  0.91919045  0.62350948  0.11088211    -0.24700
H3489       H  0.88908991  0.63961221  0.09000780     0.20200
S3490       S  0.88717069  0.56488881  0.05289298    -0.30400
H3491       H  0.92059951  0.55090812  0.07357097     0.10500
C3492       C  0.91665337  0.52643948  0.10076605     0.03700
C3493       C  0.93173596  0.51192096  0.10906456    -0.12700
C3494       C  0.96371998  0.53402162  0.11583081    -0.08400
C3495       C  0.98238315  0.57126252  0.11349085     0.07200
C3496       C  0.96858917  0.58557014  0.10453713    -0.13500
S3497       S  0.87265864  0.49738958  0.09378700    -0.30400
H3498       H  0.91720025  0.48354964  0.11106301     0.11400
S3499       S  0.52434631  0.60188768  0.12150242    -0.27500
H3500       H  0.98302751  0.61406415  0.10255522     0.08700
H3501       H  0.85090726  0.55669761  0.05321494     0.27100
H3502       H  0.86656829  0.46533989  0.09957370     0.21900
H3503       H  0.52664731  0.63405148  0.11737375     0.27200
H3504       H  0.92217121  0.59603653  0.11679751     0.16100
C3505       C  0.66093151  0.61278585  0.08213046    -0.11200
C3506       C  0.66232068  0.59578452  0.09339971     0.15300
C3507       C  0.69366630  0.59407239  0.09624437     0.02200
C3508       C  0.72233121  0.60818325  0.08754807    -0.15600
C3509       C  0.72086738  0.62448844  0.07604696    -0.10400
C3510       C  0.68999757  0.62764131  0.07353433     0.08900
C3511       C  0.62965004  0.57729972  0.10144424     0.10000
S3512       S  0.69844948  0.57318170  0.11056134    -0.24700
H3513       H  0.74579447  0.60572230  0.08971352     0.20200
S3514       S  0.68624675  0.65100310  0.05981834    -0.30400
H3515       H  0.63692436  0.61432818  0.08000115     0.10500
C3516       C  0.62049689  0.59584780  0.11039293     0.03700
C3517       C  0.59019357  0.57651217  0.11825099    -0.12700
C3518       C  0.56843526  0.53904542  0.11723933    -0.08400
C3519       C  0.57744910  0.52076937  0.10799241     0.07200
C3520       C  0.60809406  0.54006969  0.10030839    -0.13500
S3521       S  0.64745683  0.64402249  0.11182037    -0.30400
H3522       H  0.58316375  0.59074794  0.12508278     0.11400
S3523       S  0.54978622  0.97171111  0.10566432    -0.27500
H3524       H  0.61559055  0.52620422  0.09338159     0.08700
H3525       H  0.72227893  0.67929293  0.06047808     0.27100
H3526       H  0.62979839  0.64731755  0.12267510     0.21900
H3527       H  0.56534605  0.96937517  0.09408650     0.27200
H3528       H  0.67338304  0.57670522  0.11819263     0.16100
C3529       C  0.92181699  0.62421785  0.16225573    -0.11200
C3530       C  0.89894694  0.58809050  0.15873229     0.15300
C3531       C  0.86107742  0.57407652  0.15983214     0.02200
C3532       C  0.84749078  0.59699459  0.16279400    -0.15600
C3533       C  0.87026984  0.63229100  0.16702875    -0.10400
C3534       C  0.90813809  0.64577338  0.16691812     0.08900
C3535       C  0.91570415  0.56617337  0.15429488     0.10000
S3536       S  0.82868308  0.52659709  0.15973534    -0.24700
H3537       H  0.81847974  0.58575497  0.16342260     0.20200
S3538       S  0.94097705  0.68946671  0.17303880    -0.30400
H3539       H  0.95084803  0.63550919  0.16180976     0.10500
C3540       C  0.90443934  0.54496257  0.14305828     0.03700
C3541       C  0.92142841  0.52559012  0.13943965    -0.12700
C3542       C  0.95327269  0.53035316  0.14533293    -0.08400
C3543       C  0.96285739  0.54935328  0.15720226     0.07200
C3544       C  0.94417855  0.56697235  0.16141418    -0.13500
S3545       S  0.87046249  0.54428113  0.13250532    -0.30400
H3546       H  0.90978656  0.50679911  0.13169487     0.11400
S3547       S  0.99669804  0.55000922  0.16770985    -0.27500
H3548       H  0.95185653  0.58168859  0.17036614     0.08700
H3549       H  0.91763540  0.70261259  0.17570852     0.27100
H3550       H  0.87032879  0.52032359  0.12331600     0.21900
H3551       H  0.49436113  0.57317387  0.17767588     0.27200
H3552       H  0.85310737  0.51564394  0.16370076     0.16100
C3553       C  0.90858024  0.79096864  0.15404718    -0.11200
C3554       C  0.89681952  0.81430511  0.15853131     0.15300
C3555       C  0.86517227  0.79937853  0.16616012     0.02200
C3556       C  0.84778656  0.76290904  0.16966541    -0.15600
C3557       C  0.86113113  0.74013569  0.16604285    -0.10400
C3558       C  0.89088348  0.75431748  0.15752931     0.08900
C3559       C  0.91685453  0.85335776  0.15461947     0.10000
S3560       S  0.84599277  0.82547280  0.17218695    -0.24700
H3561       H  0.82455922  0.75260304  0.17596370     0.20200
S3562       S  0.90771728  0.72711072  0.15091313    -0.30400
H3563       H  0.93180799  0.80141323  0.14774708     0.10500
C3564       C  0.95231046  0.87782933  0.15896107     0.03700
C3565       C  0.97026454  0.91399330  0.15473310    -0.12700
C3566       C  0.95400229  0.92633615  0.14592831    -0.08400
C3567       C  0.91738126  0.90242528  0.14248305     0.07200
C3568       C  0.89974580  0.86649092  0.14659100    -0.13500
S3569       S  0.97510744  0.86283445  0.16969309    -0.30400
H3570       H  0.49764805  0.93188232  0.15727979     0.11400
S3571       S  0.89121418  0.91613260  0.13294778    -0.27500
H3572       H  0.87222721  0.84850219  0.14348874     0.08700
H3573       H  0.87539893  0.70501524  0.14425755     0.27100
H3574       H  0.50702837  0.89581519  0.17056012     0.21900
H3575       H  0.91050966  0.95215061  0.13677926     0.27200
H3576       H  0.87834059  0.85860369  0.17262307     0.16100
C3577       C  0.69611118  0.57242348  0.16448433    -0.11200
C3578       C  0.68630187  0.59063017  0.15574434     0.15300
C3579       C  0.71345689  0.62542274  0.15179639     0.02200
C3580       C  0.74850899  0.64140717  0.15723903    -0.15600
C3581       C  0.75763995  0.62358257  0.16655659    -0.10400
C3582       C  0.73122478  0.58751533  0.16944120     0.08900
C3583       C  0.64720744  0.57253393  0.15162691     0.10000
S3584       S  0.70521087  0.65115598  0.14006204    -0.24700
H3585       H  0.76827060  0.66870102  0.15464303     0.20200
S3586       S  0.74098207  0.55885814  0.17904267    -0.30400
H3587       H  0.67567747  0.54596420  0.16762440     0.10500
C3588       C  0.62908885  0.53728076  0.14654965     0.03700
C3589       C  0.59165899  0.51990750  0.14409663    -0.12700
C3590       C  0.57148018  0.53731893  0.14565844    -0.08400
C3591       C  0.59013514  0.57327422  0.15033301     0.07200
C3592       C  0.62698457  0.58960403  0.15369638    -0.13500
S3593       S  0.65395093  0.51510427  0.14215706    -0.30400
H3594       H  0.57842511  0.49329660  0.13996158     0.11400
S3595       S  0.57080802  0.60198173  0.15119237    -0.27500
H3596       H  0.64040195  0.61655973  0.15760205     0.08700
H3597       H  0.71082181  0.52591573  0.17545903     0.27100
H3598       H  0.62537924  0.48539258  0.13594720     0.21900
H3599       H  0.53822347  0.57899111  0.14507957     0.27200
H3600       H  0.67746369  0.62145530  0.13362806     0.16100
C3601       C  0.91483987  0.59064166  0.64261833    -0.11200
C3602       C  0.93152150  0.61759436  0.65197057     0.15300
C3603       C  0.93636823  0.65191518  0.64966132     0.02200
C3604       C  0.92292665  0.65804885  0.63833991    -0.15600
C3605       C  0.90392697  0.63046173  0.62934632    -0.10400
C3606       C  0.90052307  0.59653809  0.63140433     0.08900
C3607       C  0.94276564  0.60868431  0.66412537     0.10000
S3608       S  0.95811355  0.68853228  0.66093585    -0.24700
H3609       H  0.92568374  0.68421962  0.63683358     0.20200
S3610       S  0.87598369  0.55914576  0.62068217    -0.30400
H3611       H  0.91149554  0.56433901  0.64436388     0.10500
C3612       C  0.91721042  0.58814580  0.67360775     0.03700
C3613       C  0.92824472  0.57630493  0.68430435    -0.12700
C3614       C  0.96423744  0.58455216  0.68553508    -0.08400
C3615       C  0.99025448  0.60776147  0.67657481     0.07200
C3616       C  0.97922351  0.61945128  0.66592647    -0.13500
S3617       S  0.87032929  0.57564885  0.67172720    -0.30400
H3618       H  0.90839129  0.55825226  0.69113021     0.11400
S3619       S  0.53975554  0.61830115  0.67643518    -0.27500
H3620       H  0.99891494  0.63588195  0.65875074     0.08700
H3621       H  0.84700623  0.56535751  0.61875111     0.27100
H3622       H  0.85799550  0.55644885  0.68327719     0.21900
H3623       H  0.54097644  0.61561730  0.68985389     0.27200
H3624       H  0.94723857  0.66751557  0.67210879     0.16100
C3625       C  0.89992199  0.84156099  0.66878272    -0.11200
C3626       C  0.91613242  0.85314011  0.65669329     0.15300
C3627       C  0.94198974  0.88949658  0.65482470     0.02200
C3628       C  0.95132691  0.91332081  0.66505183    -0.15600
C3629       C  0.93619672  0.90179484  0.67733447    -0.10400
C3630       C  0.90962411  0.86542902  0.67911619     0.08900
C3631       C  0.90568469  0.82668533  0.64624448     0.10000
S3632       S  0.96516839  0.90703570  0.63980769    -0.24700
H3633       H  0.97192830  0.94103046  0.66346005     0.20200
S3634       S  0.88638448  0.84800308  0.69407725    -0.30400
H3635       H  0.87952619  0.81366227  0.67015377     0.10500
C3636       C  0.91312673  0.79840858  0.64709861     0.03700
C3637       C  0.90161175  0.77305352  0.63726610    -0.12700
C3638       C  0.88311665  0.77549986  0.62654253    -0.08400
C3639       C  0.87653441  0.80434748  0.62548572     0.07200
C3640       C  0.88800236  0.82976038  0.63536137    -0.13500
S3641       S  0.93801062  0.79495404  0.66053175    -0.30400
H3642       H  0.90684733  0.75095923  0.63793188     0.11400
S3643       S  0.85233036  0.80924775  0.61219649    -0.27500
H3644       H  0.88240254  0.85162194  0.63472174     0.08700
H3645       H  0.88370082  0.87850861  0.69691310     0.27100
H3646       H  0.93446543  0.76171107  0.65713672     0.21900
H3647       H  0.82842381  0.77236540  0.61035241     0.27200
H3648       H  0.96620854  0.87610620  0.63619880     0.16100
C3649       C  0.69980384  0.56213986  0.64582477    -0.11200
C3650       C  0.67519486  0.57424932  0.64744585     0.15300
C3651       C  0.67392874  0.59799799  0.63839891     0.02200
C3652       C  0.69833957  0.61022372  0.62817943    -0.15600
C3653       C  0.72395001  0.59924120  0.62686323    -0.10400
C3654       C  0.72407423  0.57423684  0.63560370     0.08900
C3655       C  0.65178403  0.56231345  0.65883217     0.10000
S3656       S  0.64323776  0.61513811  0.63973252    -0.24700
H3657       H  0.69856391  0.62980602  0.62160038     0.20200
S3658       S  0.75514514  0.55749268  0.63439974    -0.30400
H3659       H  0.70046131  0.54359766  0.65269440     0.10500
C3660       C  0.62057548  0.52821656  0.65919003     0.03700
C3661       C  0.59733267  0.51901451  0.66969700    -0.12700
C3662       C  0.60475042  0.54321170  0.67986633    -0.08400
C3663       C  0.63675163  0.57696334  0.67965916     0.07200
C3664       C  0.66015392  0.58600354  0.66919040    -0.13500
S3665       S  0.60941025  0.49726088  0.64595510    -0.30400
H3666       H  0.57267591  0.49319797  0.66984943     0.11400
S3667       S  0.64778167  0.61054183  0.69187497    -0.27500
H3668       H  0.68429312  0.61223671  0.66884643     0.08700
H3669       H  0.75914526  0.56086703  0.62099857     0.27100
H3670       H  0.57401904  0.98261005  0.64859226     0.21900
H3671       H  0.61244486  0.60472003  0.69301751     0.27200
H3672       H  0.61545343  0.58534783  0.64609637     0.16100
C3673       C  0.73729218  0.51385414  0.55301116    -0.11200
C3674       C  0.74201968  0.98609739  0.55617843     0.15300
C3675       C  0.76672404  0.99096942  0.56601523     0.02200
C3676       C  0.78335818  0.52160129  0.57329558    -0.15600
C3677       C  0.77689044  0.54973487  0.57038400    -0.10400
C3678       C  0.75380381  0.54580171  0.55999234     0.08900
C3679       C  0.72868386  0.95587469  0.54714270     0.10000
S3680       S  0.77965444  0.95802309  0.56974324    -0.24700
H3681       H  0.80090399  0.52427091  0.58124503     0.20200
S3682       S  0.74627217  0.58124187  0.55450410    -0.30400
H3683       H  0.72030438  0.51123277  0.54487435     0.10500
C3684       C  0.69404110  0.92576384  0.54823519     0.03700
C3685       C  0.68244313  0.89845002  0.53907382    -0.12700
C3686       C  0.70441009  0.90066632  0.52864824    -0.08400
C3687       C  0.74023941  0.93050632  0.52810162     0.07200
C3688       C  0.75143805  0.95783549  0.53720498    -0.13500
S3689       S  0.66486057  0.92195398  0.56138216    -0.30400
H3690       H  0.65585497  0.87527667  0.54005980     0.11400
S3691       S  0.77461155  0.93590390  0.51688229    -0.27500
H3692       H  0.77848745  0.98090208  0.53663722     0.08700
H3693       H  0.78227271  0.60876100  0.55634645     0.27100
H3694       H  0.63694274  0.88688767  0.55861867     0.21900
H3695       H  0.75527181  0.90264942  0.51105710     0.27200
H3696       H  0.74746979  0.92787064  0.56558642     0.16100
C3697       C  0.55071229  0.79948661  0.53823114    -0.11200
C3698       C  0.53773359  0.76392719  0.54200782     0.15300
C3699       C  0.55409835  0.74496047  0.53713447     0.02200
C3700       C  0.58320874  0.76209114  0.52868687    -0.15600
C3701       C  0.59702963  0.79806259  0.52520809    -0.10400
C3702       C  0.58041942  0.81705451  0.53008422     0.08900
C3703       C  0.50690096  0.74756678  0.55096114     0.10000
S3704       S  0.53997049  0.69940934  0.54165350    -0.24700
H3705       H  0.59592224  0.74751201  0.52513034     0.20200
S3706       S  0.59493634  0.86347474  0.52674881    -0.30400
H3707       H  0.53785734  0.81391675  0.54188731     0.10500
C3708       C  0.00956043  0.75920418  0.56438231     0.03700
C3709       C  0.97904194  0.74468131  0.57231219    -0.12700
C3710       C  0.94550992  0.71734412  0.56786072    -0.08400
C3711       C  0.94228852  0.70434998  0.55520960     0.07200
C3712       C  0.97271725  0.71895081  0.54727631    -0.13500
S3713       S  0.55347580  0.79458438  0.56981210    -0.30400
H3714       H  0.98128771  0.75428603  0.58206552     0.11400
S3715       S  0.89994974  0.67015252  0.54852024    -0.27500
H3716       H  0.97012039  0.70942349  0.53748833     0.08700
H3717       H  0.62491226  0.87122633  0.51922755     0.27100
H3718       H  0.04117848  0.79426889  0.58308367     0.21900
H3719       H  0.87788465  0.67986263  0.55541671     0.27200
H3720       H  0.52940603  0.70192350  0.55419874     0.16100
C3721       C  0.70917896  0.74652066  0.53314997    -0.11200
C3722       C  0.73209085  0.76732618  0.54313114     0.15300
C3723       C  0.73945589  0.80284529  0.54484482     0.02200
C3724       C  0.72429957  0.81690577  0.53640204    -0.15600
C3725       C  0.70165947  0.79633782  0.52625111    -0.10400
C3726       C  0.69319689  0.76022022  0.52491509     0.08900
C3727       C  0.74770764  0.75102335  0.55157616     0.10000
S3728       S  0.76795129  0.83164161  0.55754596    -0.24700
H3729       H  0.73057095  0.84441133  0.53768111     0.20200
S3730       S  0.66054321  0.72917475  0.51366261    -0.30400
H3731       H  0.70298887  0.71900904  0.53198510     0.10500
C3732       C  0.72656054  0.72545711  0.56091052     0.03700
C3733       C  0.74227913  0.71024851  0.56861885    -0.12700
C3734       C  0.77872179  0.71987916  0.56711911    -0.08400
C3735       C  0.79944100  0.74472693  0.55740877     0.07200
C3736       C  0.78390297  0.76044770  0.54993395    -0.13500
S3737       S  0.67982665  0.71300308  0.56322534    -0.30400
H3738       H  0.72628581  0.69124158  0.57600564     0.11400
S3739       S  0.84502994  0.75597679  0.55352625    -0.27500
H3740       H  0.79986398  0.77952756  0.54254254     0.08700
H3741       H  0.64054853  0.74670107  0.51293971     0.27100
H3742       H  0.67216329  0.68744012  0.57289944     0.21900
H3743       H  0.83881776  0.72090263  0.55520428     0.27200
H3744       H  0.76065222  0.80429414  0.56641528     0.16100
C3745       C  0.73750417  0.53640829  0.48230277    -0.11200
C3746       C  0.75700023  0.52172139  0.48789153     0.15300
C3747       C  0.79483620  0.54388033  0.48928024     0.02200
C3748       C  0.81209159  0.57945783  0.48481558    -0.15600
C3749       C  0.79274114  0.59426715  0.47910645    -0.10400
C3750       C  0.75480313  0.57194793  0.47780742     0.08900
C3751       C  0.73795470  0.98341065  0.49156752     0.10000
S3752       S  0.82275420  0.52796709  0.49625864    -0.24700
H3753       H  0.84122738  0.59459199  0.48484213     0.20200
S3754       S  0.72819219  0.58749085  0.46961417    -0.30400
H3755       H  0.70856068  0.51941133  0.48111345     0.10500
C3756       C  0.71209881  0.97107165  0.50146732     0.03700
C3757       C  0.69368734  0.93458571  0.50478491    -0.12700
C3758       C  0.70239810  0.90995585  0.49928256    -0.08400
C3759       C  0.72747854  0.92204684  0.48901231     0.07200
C3760       C  0.74457234  0.95843907  0.48519287    -0.13500
S3761       S  0.70434495  0.00217678  0.51065098    -0.30400
H3762       H  0.67375525  0.92567771  0.51231989     0.11400
S3763       S  0.74060230  0.89257330  0.48147237    -0.27500
H3764       H  0.76414577  0.96786694  0.47749557     0.08700
H3765       H  0.69581850  0.55435009  0.46892930     0.27100
H3766       H  0.68556087  0.97867814  0.52081237     0.21900
H3767       H  0.76136378  0.91609788  0.47158967     0.27200
H3768       H  0.79686330  0.50562739  0.50528218     0.16100
C3769       C  0.54048706  0.75163245  0.48839868    -0.11200
C3770       C  0.52137289  0.77008711  0.49011020     0.15300
C3771       C  0.54053378  0.80539797  0.49512480     0.02200
C3772       C  0.57794468  0.82181044  0.49738258    -0.15600
C3773       C  0.59636497  0.80247417  0.49673266    -0.10400
C3774       C  0.57711060  0.76687218  0.49206210     0.08900
C3775       C  0.98095070  0.75029790  0.48707472     0.10000
S3776       S  0.51843216  0.82951946  0.50038505    -0.24700
H3777       H  0.59217167  0.84916557  0.50075972     0.20200
S3778       S  0.59838576  0.73998795  0.49121295    -0.30400
H3779       H  0.52620515  0.72462038  0.48458072     0.10500
C3780       C  0.96667887  0.76447047  0.47805711     0.03700
C3781       C  0.92989351  0.74468927  0.47464707    -0.12700
C3782       C  0.90698871  0.70954334  0.47908680    -0.08400
C3783       C  0.92054059  0.69633632  0.48871555     0.07200
C3784       C  0.95716327  0.71665510  0.49254453    -0.13500
S3785       S  0.49553287  0.80728286  0.46968270    -0.30400
H3786       H  0.91918516  0.75600025  0.46788066     0.11400
S3787       S  0.89173494  0.65387555  0.49624170    -0.27500
H3788       H  0.96762058  0.70605974  0.49972100     0.08700
H3789       H  0.56741719  0.70751492  0.48780085     0.27100
H3790       H  0.97018463  0.80344886  0.46069310     0.21900
H3791       H  0.91823953  0.65312494  0.50402401     0.27200
H3792       H  0.98360565  0.79727386  0.50379807     0.16100
C3793       C  0.76626676  0.79818891  0.49614336    -0.11200
C3794       C  0.74879474  0.76953543  0.48759993     0.15300
C3795       C  0.71411090  0.76059837  0.48300955     0.02200
C3796       C  0.69685612  0.77885029  0.48776810    -0.15600
C3797       C  0.71300620  0.80546502  0.49726769    -0.10400
C3798       C  0.74924888  0.81650821  0.50085068     0.08900
C3799       C  0.76766451  0.74965743  0.48382646     0.10000
S3800       S  0.69013586  0.72544122  0.47140969    -0.24700
H3801       H  0.66996760  0.77097993  0.48445454     0.20200
S3802       S  0.77493407  0.85393121  0.51140498    -0.30400
H3803       H  0.79324215  0.80567803  0.49937779     0.10500
C3804       C  0.79718205  0.76441816  0.47527304     0.03700
C3805       C  0.81466164  0.74518464  0.47224843    -0.12700
C3806       C  0.80246365  0.71038415  0.47702384    -0.08400
C3807       C  0.77476557  0.69677915  0.48637040     0.07200
C3808       C  0.75759904  0.71647750  0.48961242    -0.13500
S3809       S  0.81296652  0.80705938  0.46746466    -0.30400
H3810       H  0.83668000  0.75661155  0.46542041     0.11400
S3811       S  0.75951370  0.65355864  0.49363531    -0.27500
H3812       H  0.73588837  0.70586064  0.49655178     0.08700
H3813       H  0.80925924  0.85871822  0.50860803     0.27100
H3814       H  0.77918466  0.80511490  0.46682449     0.21900
H3815       H  0.73081932  0.65215360  0.50069447     0.27200
H3816       H  0.72105162  0.72980403  0.46504681     0.16100
C3817       C  0.87039132  0.92722862  0.86816577    -0.11200
C3818       C  0.86776944  0.95293103  0.87551396     0.15300
C3819       C  0.89573349  0.98895290  0.87512568     0.02200
C3820       C  0.92592147  0.99829409  0.86744099    -0.15600
C3821       C  0.92898381  0.97262589  0.86007767    -0.10400
C3822       C  0.90061665  0.93636983  0.86060115     0.08900
C3823       C  0.83739448  0.93985834  0.88452305     0.10000
S3824       S  0.89503932  0.02404994  0.88435416    -0.24700
H3825       H  0.94801786  0.52552017  0.86826498     0.20200
S3826       S  0.90105504  0.89952102  0.85270925    -0.30400
H3827       H  0.84907364  0.89937927  0.86870545     0.10500
C3828       C  0.80356329  0.93475630  0.88071834     0.03700
C3829       C  0.77406666  0.91735973  0.88906929    -0.12700
C3830       C  0.77772263  0.90419981  0.90098961    -0.08400
C3831       C  0.81178782  0.90894784  0.90458922     0.07200
C3832       C  0.84131372  0.92741506  0.89645498    -0.13500
S3833       S  0.79803457  0.94976610  0.86514594    -0.30400
H3834       H  0.74801766  0.91365721  0.88626442     0.11400
S3835       S  0.81881794  0.88926429  0.91877346    -0.27500
H3836       H  0.86716975  0.93028362  0.89910415     0.08700
H3837       H  0.93617272  0.91985201  0.84835872     0.27100
H3838       H  0.76063954  0.93657393  0.86611069     0.21900
H3839       H  0.78632726  0.85636895  0.91748437     0.27200
H3840       H  0.85738384  0.00736503  0.88577292     0.16100
C3841       C  0.55239128  0.89673806  0.89581088    -0.11200
C3842       C  0.55836364  0.89662332  0.88259919     0.15300
C3843       C  0.57917995  0.88183904  0.87808111     0.02200
C3844       C  0.59590714  0.87030045  0.88687138    -0.15600
C3845       C  0.59139361  0.87177877  0.90021299    -0.10400
C3846       C  0.56752419  0.88343769  0.90460179     0.08900
C3847       C  0.54633530  0.91594203  0.87397618     0.10000
S3848       S  0.58584665  0.87742346  0.86122505    -0.24700
H3849       H  0.61295935  0.86041729  0.88316175     0.20200
S3850       S  0.55459145  0.88183362  0.92113458    -0.30400
H3851       H  0.53608731  0.90772237  0.89933115     0.10500
C3852       C  0.50969528  0.90607412  0.87268569     0.03700
C3853       C  0.50046049  0.92728396  0.86518110    -0.12700
C3854       C  0.52686153  0.95753300  0.85861606    -0.08400
C3855       C  0.56358675  0.96757084  0.86007533     0.07200
C3856       C  0.57282810  0.94655697  0.86765562    -0.13500
S3857       S  0.47462776  0.86619603  0.88036001    -0.30400
H3858       H  0.47251566  0.92032438  0.86445744     0.11400
S3859       S  0.59818865  0.50865302  0.85325364    -0.27500
H3860       H  0.60099335  0.95456788  0.86904232     0.08700
H3861       H  0.54661541  0.84617591  0.92284578     0.27100
H3862       H  0.44515476  0.86887451  0.87571436     0.21900
H3863       H  0.62710177  0.50288075  0.85599071     0.27200
H3864       H  0.55366169  0.87543676  0.85696453     0.16100
C3865       C  0.59650827  0.62455847  0.86841658    -0.11200
C3866       C  0.57787437  0.62597907  0.87920854     0.15300
C3867       C  0.54359501  0.59669582  0.88207670     0.02200
C3868       C  0.52793742  0.56744635  0.87374778    -0.15600
C3869       C  0.54478829  0.56710095  0.86220101    -0.10400
C3870       C  0.58086279  0.59524565  0.86000786     0.08900
C3871       C  0.59393899  0.65899273  0.88695890     0.10000
S3872       S  0.01955915  0.59608367  0.89658011    -0.24700
H3873       H  0.00245641  0.54603361  0.87676359     0.20200
S3874       S  0.60987159  0.59587933  0.84731407    -0.30400
H3875       H  0.62344298  0.64665272  0.86649948     0.10500
C3876       C  0.61376359  0.66268399  0.89819816     0.03700
C3877       C  0.62613450  0.69373424  0.90569713    -0.12700
C3878       C  0.61877554  0.72091310  0.90215719    -0.08400
C3879       C  0.59837746  0.71667914  0.89093325     0.07200
C3880       C  0.58694184  0.68619736  0.88332610    -0.13500
S3881       S  0.62314093  0.62785254  0.90294164    -0.30400
H3882       H  0.64178214  0.69702020  0.91428447     0.11400
S3883       S  0.58378209  0.74775692  0.88626515    -0.27500
H3884       H  0.57099185  0.68281770  0.87479692     0.08700
H3885       H  0.58783520  0.56090489  0.84285668     0.27100
H3886       H  0.64159626  0.64428983  0.91436612     0.21900
H3887       H  0.57729965  0.75495496  0.89884931     0.27200
H3888       H  0.52956488  0.63198353  0.89654543     0.16100
C3889       C  0.79104072  0.87831956  0.77331343    -0.11200
C3890       C  0.79063740  0.90014259  0.76344405     0.15300
C3891       C  0.76035802  0.90458377  0.76192700     0.02200
C3892       C  0.73141652  0.88749880  0.77042796    -0.15600
C3893       C  0.73236028  0.86695938  0.78075149    -0.10400
C3894       C  0.76206676  0.86116834  0.78182618     0.08900
C3895       C  0.82186604  0.91699218  0.75470554     0.10000
S3896       S  0.75701721  0.93185941  0.74947962    -0.24700
H3897       H  0.70858447  0.89169953  0.76932914     0.20200
S3898       S  0.76411457  0.83074587  0.79314896    -0.30400
H3899       H  0.81392626  0.87413808  0.77423713     0.10500
C3900       C  0.85304118  0.94949841  0.75795390     0.03700
C3901       C  0.88259020  0.96418536  0.74956403    -0.12700
C3902       C  0.88178879  0.94661124  0.73810349    -0.08400
C3903       C  0.85014765  0.91421384  0.73480876     0.07200
C3904       C  0.82061951  0.89970327  0.74317500    -0.13500
S3905       S  0.85508541  0.97205636  0.77281863    -0.30400
H3906       H  0.90680408  0.98899299  0.75208474     0.11400
S3907       S  0.84530562  0.89062514  0.71998423    -0.27500
H3908       H  0.79644439  0.87477412  0.74068855     0.08700
H3909       H  0.72679407  0.81015628  0.79482685     0.27100
H3910       H  0.88747952  0.50906218  0.76926095     0.21900
H3911       H  0.86625422  0.92155051  0.71259139     0.27200
H3912       H  0.79419715  0.95629439  0.74835551     0.16100
C3913       C  0.61523900  0.91281749  0.77269778    -0.11200
C3914       C  0.59414282  0.89007333  0.76279572     0.15300
C3915       C  0.59166150  0.85647489  0.76132359     0.02200
C3916       C  0.60922199  0.84591928  0.77009914    -0.15600
C3917       C  0.62891082  0.86754120  0.78060424    -0.10400
C3918       C  0.63345492  0.90270075  0.78139554     0.08900
C3919       C  0.57715843  0.90348469  0.75373662     0.10000
S3920       S  0.56741726  0.82605286  0.74832716    -0.24700
H3921       H  0.60705493  0.82012895  0.76865384     0.20200
S3922       S  0.66384274  0.93831011  0.79199464    -0.30400
H3923       H  0.61832936  0.93933995  0.77342411     0.10500
C3924       C  0.54236836  0.89824958  0.75596170     0.03700
C3925       C  0.52813815  0.91337689  0.74750739    -0.12700
C3926       C  0.54833572  0.93402963  0.73698668    -0.08400
C3927       C  0.58275747  0.93808288  0.73457721     0.07200
C3928       C  0.59689455  0.92307554  0.74304064    -0.13500
S3929       S  0.51659030  0.87292269  0.76971728    -0.30400
H3930       H  0.50180177  0.91027517  0.74935741     0.11400
S3931       S  0.60964932  0.96138998  0.72076442    -0.27500
H3932       H  0.62353263  0.92673256  0.74130659     0.08700
H3933       H  0.67832569  0.92030632  0.79838467     0.27100
H3934       H  0.98284071  0.86691702  0.76463673     0.21900
H3935       H  0.58008556  0.95109425  0.71245516     0.27200
H3936       H  0.54318032  0.83826913  0.74574911     0.16100
C3937       C  0.61337651  0.66602312  0.75045869    -0.11200
C3938       C  0.59498331  0.66372688  0.76188830     0.15300
C3939       C  0.56172180  0.63217314  0.76442208     0.02200
C3940       C  0.54692302  0.60476230  0.75524507    -0.15600
C3941       C  0.56478620  0.60750933  0.74365588    -0.10400
C3942       C  0.59869450  0.63839273  0.74133459     0.08900
C3943       C  0.60819441  0.69648290  0.76990364     0.10000
S3944       S  0.53636028  0.62523652  0.77903598    -0.24700
H3945       H  0.52112754  0.58096263  0.75717332     0.20200
S3946       S  0.62330343  0.64542847  0.72657157    -0.30400
H3947       H  0.63847989  0.69037725  0.74831716     0.10500
C3948       C  0.64230887  0.71337789  0.77594326     0.03700
C3949       C  0.65368207  0.74541471  0.78281397    -0.12700
C3950       C  0.63150894  0.76073383  0.78399202    -0.08400
C3951       C  0.59664804  0.74262128  0.77827699     0.07200
C3952       C  0.58598632  0.71151379  0.77112637    -0.13500
S3953       S  0.67085211  0.69362862  0.77525968    -0.30400
H3954       H  0.67984583  0.75839966  0.78738904     0.11400
S3955       S  0.56286124  0.75538620  0.78005073    -0.27500
H3956       H  0.55964369  0.69846432  0.76654926     0.08700
H3957       H  0.59261457  0.62964879  0.71858859     0.27100
H3958       H  0.69945120  0.71994819  0.78263838     0.21900
H3959       H  0.58383797  0.78425272  0.78795348     0.27200
H3960       H  0.56499465  0.65070344  0.78657721     0.16100
C3961       C  0.57506978  0.88395594  0.80998401    -0.11200
C3962       C  0.59329442  0.91179523  0.81883262     0.15300
C3963       C  0.62568173  0.91602764  0.82434526     0.02200
C3964       C  0.64046710  0.89495037  0.81982762    -0.15600
C3965       C  0.62282068  0.86830881  0.81031855    -0.10400
C3966       C  0.58805178  0.86128062  0.80639941     0.08900
C3967       C  0.57427141  0.93170144  0.82292216     0.10000
S3968       S  0.64914370  0.94719678  0.83720080    -0.24100
H3969       H  0.66653729  0.90036245  0.82339363     0.20200
S3970       S  0.55662202  0.82170645  0.79792281    -0.30400
H3971       H  0.54918773  0.87863647  0.80621317     0.10500
C3972       C  0.58824473  0.96900949  0.82119471     0.03700
C3973       C  0.56728886  0.98478674  0.82485450    -0.12700
C3974       C  0.53225601  0.96398666  0.82995955    -0.08400
C3975       C  0.51737537  0.92633426  0.83032955     0.07200
C3976       C  0.53865127  0.91104319  0.82729585    -0.13500
S3977       S  0.63238694  0.99649013  0.81425352    -0.30400
H3978       H  0.57764229  0.51277662  0.82405276     0.11400
S3979       S  0.97009039  0.89587817  0.83446599    -0.27500
H3980       H  0.52723677  0.88232758  0.82819786     0.08700
H3981       H  0.56356603  0.79991111  0.80606920     0.27100
H3982       H  0.63116821  0.52837847  0.81452782     0.21900
H3983       H  0.97255201  0.86503326  0.83685191     0.27200
H3984       H  0.61876408  0.94747228  0.84218843     0.16100
C3985       C  0.86594289  0.96681782  0.82926974    -0.11200
C3986       C  0.85146020  0.93276372  0.82365648     0.15300
C3987       C  0.87533172  0.91961718  0.82108885     0.02200
C3988       C  0.91188061  0.93941524  0.82503725    -0.15600
C3989       C  0.92580218  0.97265418  0.83134748    -0.10400
C3990       C  0.90250877  0.98694846  0.83276890     0.08900
C3991       C  0.81249492  0.91398190  0.81946243     0.10000
S3992       S  0.86080102  0.87776383  0.81288468    -0.24700
H3993       H  0.92919868  0.92808780  0.82361295     0.20200
S3994       S  0.91670218  0.53057726  0.83991607    -0.30400
H3995       H  0.84864595  0.97822549  0.83071566     0.10500
C3996       C  0.78496260  0.88229433  0.82520418     0.03700
C3997       C  0.74902605  0.86599843  0.82043407    -0.12700
C3998       C  0.73965764  0.88050073  0.80997318    -0.08400
C3999       C  0.76692168  0.91494032  0.80547323     0.07200
C4000       C  0.80253227  0.93028961  0.80998685    -0.13500
S4001       S  0.79546960  0.86300165  0.83872724    -0.30400
H4002       H  0.72841766  0.84131551  0.82464447     0.11400
S4003       S  0.75939639  0.94353138  0.79481804    -0.27500
H4004       H  0.82297924  0.95580229  0.80608472     0.08700
H4005       H  0.94923842  0.54513534  0.83297440     0.27100
H4006       H  0.75982127  0.83558610  0.84116008     0.21900
H4007       H  0.72385361  0.91939942  0.79175316     0.27200
H4008       H  0.83607932  0.88063276  0.80479600     0.16100
C4009       C  0.62971079  0.70936470  0.82011237    -0.11200
C4010       C  0.59195854  0.68828791  0.81889225     0.15300
C4011       C  0.57277693  0.70519115  0.81457236     0.02200
C4012       C  0.59134601  0.74199550  0.81168370    -0.15600
C4013       C  0.62926032  0.76281651  0.81219166    -0.10400
C4014       C  0.64848558  0.74599975  0.81658873     0.08900
C4015       C  0.57277200  0.64998735  0.82343775     0.10000
S4016       S  0.52466386  0.68080613  0.81174195    -0.24700
H4017       H  0.57608876  0.75386060  0.80804688     0.20200
S4018       S  0.69703882  0.77046396  0.81728710    -0.30400
H4019       H  0.64450088  0.69686347  0.82371240     0.10500
C4020       C  0.57704269  0.62247940  0.81774472     0.03700
C4021       C  0.55788983  0.58704544  0.82267418    -0.12700
C4022       C  0.53511441  0.57838645  0.83345410    -0.08400
C4023       C  0.52983999  0.60619491  0.83865328     0.07200
C4024       C  0.54902012  0.64107965  0.83375730    -0.13500
S4025       S  0.60707869  0.63246862  0.80428198    -0.30400
H4026       H  0.56216185  0.56640222  0.81854315     0.11400
S4027       S  0.49871552  0.60066037  0.85129865    -0.27500
H4028       H  0.54520467  0.66186177  0.83807362     0.08700
H4029       H  0.70165171  0.74208663  0.82160214     0.27100
H4030       H  0.60065302  0.59739526  0.80242405     0.21900
H4031       H  0.48064478  0.56347974  0.85151352     0.27200
H4032       H  0.52262073  0.64818805  0.80840975     0.16100
C4033       C  0.93706250  0.83248027  0.22920231    -0.11200
C4034       C  0.91937477  0.83403130  0.21810811     0.15300
C4035       C  0.91469628  0.86387787  0.21616637     0.02200
C4036       C  0.92699584  0.89102917  0.22544347    -0.15600
C4037       C  0.94463687  0.88953119  0.23660473    -0.10400
C4038       C  0.94945673  0.85962766  0.23848795     0.08900
C4039       C  0.90207147  0.80209551  0.20963740     0.10000
S4040       S  0.89346400  0.86886841  0.20200699    -0.24700
H4041       H  0.92349047  0.91393857  0.22378238     0.20200
S4042       S  0.46012488  0.84915884  0.25506646    -0.30400
H4043       H  0.93994783  0.80920565  0.23087284     0.10500
C4044       C  0.92214145  0.79320976  0.20120950     0.03700
C4045       C  0.90416155  0.76198833  0.19367703    -0.12700
C4046       C  0.86660358  0.73908143  0.19464730    -0.08400
C4047       C  0.84679413  0.74786425  0.20328467     0.07200
C4048       C  0.86464709  0.77944978  0.21053550    -0.13500
S4049       S  0.97053704  0.82158935  0.20010076    -0.30400
H4050       H  0.91935284  0.75505142  0.18714182     0.11400
S4051       S  0.79868565  0.71959844  0.20500872    -0.27500
H4052       H  0.84955560  0.78647265  0.21709619     0.08700
H4053       H  0.44618378  0.86650583  0.26262182     0.27100
H4054       H  0.97581029  0.80201274  0.19037599     0.21900
H4055       H  0.79397422  0.73877273  0.21501923     0.27200
H4056       H  0.90512867  0.85084166  0.19376220     0.16100
C4057       C  0.87873913  0.59006070  0.20562439    -0.11200
C4058       C  0.90803925  0.61484850  0.21293876     0.15300
C4059       C  0.91974036  0.65174877  0.21173274     0.02200
C4060       C  0.90170807  0.66279181  0.20321190    -0.15600
C4061       C  0.87190083  0.63782361  0.19595120    -0.10400
C4062       C  0.85999904  0.60079690  0.19752539     0.08900
C4063       C  0.92451508  0.60039342  0.22189662     0.10000
S4064       S  0.95699257  0.68590087  0.22084644    -0.24700
H4065       H  0.91080347  0.69114337  0.20231629     0.20200
S4066       S  0.81944886  0.56501326  0.19071149    -0.30400
H4067       H  0.86941140  0.56167325  0.20666390     0.10500
C4068       C  0.90517570  0.57994560  0.23264939     0.03700
C4069       C  0.91926389  0.56248537  0.23997845    -0.12700
C4070       C  0.95253744  0.56531261  0.23688031    -0.08400
C4071       C  0.97208736  0.58622605  0.22618294     0.07200
C4072       C  0.95796481  0.60365704  0.21886150    -0.13500
S4073       S  0.86255325  0.57624450  0.23706705    -0.30400
H4074       H  0.90444759  0.54674025  0.24822599     0.11400
S4075       S  0.01400973  0.58998495  0.22091585    -0.27500
H4076       H  0.97247029  0.61876100  0.21045366     0.08700
H4077       H  0.80558544  0.58723401  0.18806386     0.27100
H4078       H  0.85773925  0.55735351  0.24857463     0.21900
H4079       H  0.00455856  0.55461482  0.22410777     0.27200
H4080       H  0.95410173  0.66422474  0.23135471     0.16100
C4081       C  0.64966662  0.54531506  0.22193038    -0.11200
C4082       C  0.67640309  0.58128651  0.22362579     0.15300
C4083       C  0.67313318  0.60140151  0.23368119     0.02200
C4084       C  0.64267329  0.58538224  0.24158678    -0.15600
C4085       C  0.61564842  0.54937822  0.23987732    -0.10400
C4086       C  0.61951605  0.52909589  0.22998248     0.08900
C4087       C  0.70621571  0.59761625  0.21427785     0.10000
S4088       S  0.70630536  0.64776929  0.23669581    -0.24700
H4089       H  0.63997435  0.60122285  0.24912725     0.20200
S4090       S  0.58525599  0.48369061  0.22637368    -0.30400
H4091       H  0.65198071  0.53000815  0.21410363     0.10500
C4092       C  0.73604472  0.59237896  0.21514279     0.03700
C4093       C  0.76394389  0.60878678  0.20616898    -0.12700
C4094       C  0.76248228  0.62994651  0.19618419    -0.08400
C4095       C  0.73267839  0.63574131  0.19551326     0.07200
C4096       C  0.70472853  0.61913968  0.20451457    -0.13500
S4097       S  0.73912987  0.56581140  0.22794465    -0.30400
H4098       H  0.78713297  0.60515068  0.20694710     0.11400
S4099       S  0.73125913  0.66675648  0.18419305    -0.27500
H4100       H  0.68187887  0.62345845  0.20417055     0.08700
H4101       H  0.59011396  0.47037026  0.23806738     0.27100
H4102       H  0.77133833  0.56762238  0.22382849     0.21900
H4103       H  0.69630603  0.65996250  0.18717237     0.27200
H4104       H  0.73628729  0.64620085  0.23200803     0.16100
C4105       C  0.54801812  0.86262142  0.33744582    -0.11200
C4106       C  0.56151985  0.89921094  0.33515865     0.15300
C4107       C  0.58619651  0.92470684  0.34399484     0.02200
C4108       C  0.59990329  0.91333439  0.35403237    -0.15600
C4109       C  0.58873351  0.87692724  0.35560719    -0.10400
C4110       C  0.56107129  0.85123646  0.34763662     0.08900
C4111       C  0.55095280  0.90984954  0.32311411     0.10000
S4112       S  0.60255356  0.97214029  0.34258370    -0.24700
H4113       H  0.62102555  0.93318174  0.36013146     0.20200
S4114       S  0.54266483  0.80359269  0.34966243    -0.30400
H4115       H  0.52824283  0.84286394  0.33094490     0.10500
C4116       C  0.57588486  0.92692434  0.31305249     0.03700
C4117       C  0.56505727  0.93787688  0.30203795    -0.12700
C4118       C  0.52975651  0.93187211  0.30086681    -0.08400
C4119       C  0.50426115  0.91259325  0.31060173     0.07200
C4120       C  0.51516977  0.90202093  0.32161421    -0.13500
S4121       S  0.62147214  0.93479159  0.31423837    -0.30400
H4122       H  0.58451825  0.95253220  0.29457183     0.11400
S4123       S  0.45738801  0.90063760  0.30953154    -0.27500
H4124       H  0.49571194  0.88794030  0.32915783     0.08700
H4125       H  0.55049705  0.80519834  0.36283947     0.27100
H4126       H  0.63406031  0.95327587  0.30256654     0.21900
H4127       H  0.45534369  0.89801024  0.29607051     0.27200
H4128       H  0.57199409  0.96873683  0.33620538     0.16100
C4129       C  0.58189924  0.66718541  0.30528721    -0.11200
C4130       C  0.59954869  0.66106112  0.31548502     0.15300
C4131       C  0.60207799  0.62972658  0.31567129     0.02200
C4132       C  0.58538342  0.60430896  0.30597878    -0.15600
C4133       C  0.56654875  0.60968395  0.29598588    -0.10400
C4134       C  0.56503595  0.64165907  0.29558843     0.08900
C4135       C  0.61137758  0.68586759  0.32644427     0.10000
S4136       S  0.62524338  0.62023455  0.32818683    -0.24700
H4137       H  0.58670939  0.57982898  0.30631875     0.20200
S4138       S  0.53953597  0.65006599  0.28369872    -0.30400
H4139       H  0.57964301  0.69116443  0.30526398     0.10500
C4140       C  0.64229057  0.72005722  0.32569943     0.03700
C4141       C  0.65065102  0.74386368  0.33595752    -0.12700
C4142       C  0.62843311  0.73423530  0.34688024    -0.08400
C4143       C  0.59763928  0.69963705  0.34762725     0.07200
C4144       C  0.58978086  0.67565001  0.33747329    -0.13500
S4145       S  0.67100055  0.73320370  0.31170833    -0.30400
H4146       H  0.67441939  0.77030400  0.33542062     0.11400
S4147       S  0.56585298  0.68546991  0.36069290    -0.27500
H4148       H  0.56573792  0.64934398  0.33790385     0.08700
H4149       H  0.51024013  0.61467409  0.28343930     0.27100
H4150       H  0.69549816  0.76839438  0.31575458     0.21900
H4151       H  0.56592390  0.71811743  0.36157253     0.27200
H4152       H  0.65043616  0.65618862  0.33108735     0.16100
C4153       C  0.78839803  0.94124331  0.32705964    -0.11200
C4154       C  0.81550085  0.93227804  0.32570604     0.15300
C4155       C  0.82171615  0.91386590  0.33569149     0.02200
C4156       C  0.79855577  0.90194167  0.34625872    -0.15600
C4157       C  0.76972366  0.90861611  0.34719125    -0.10400
C4158       C  0.76553661  0.92982046  0.33774711     0.08900
C4159       C  0.83681809  0.94253303  0.31376848     0.10000
S4160       S  0.85795655  0.90384014  0.33535883    -0.24700
H4161       H  0.80216184  0.88603152  0.35352449     0.20200
S4162       S  0.73140885  0.94270246  0.33926327    -0.30400
H4163       H  0.78468056  0.95644911  0.31955324     0.10500
C4164       C  0.83373202  0.91670564  0.30473621     0.03700
C4165       C  0.85755177  0.92758304  0.29428106    -0.12700
C4166       C  0.88398437  0.96373577  0.29273959    -0.08400
C4167       C  0.88463225  0.98978306  0.30116787     0.07200
C4168       C  0.86123411  0.97889209  0.31162381    -0.13500
S4169       S  0.80032009  0.86991237  0.30676489    -0.30400
H4170       H  0.85723079  0.90771516  0.28782142     0.11400
S4171       S  0.91512940  0.53756729  0.29984464    -0.27500
H4172       H  0.86287191  0.99880013  0.31838464     0.08700
H4173       H  0.74070928  0.96412645  0.32818491     0.27100
H4174       H  0.80821693  0.85756430  0.29540790     0.21900
H4175       H  0.91922095  0.53634370  0.28649839     0.27200
H4176       H  0.88181227  0.93350595  0.32789940     0.16100
C4177       C  0.78057498  0.49590774  0.41887468    -0.11200
C4178       C  0.75981734  0.49765201  0.42891645     0.15300
C4179       C  0.72366642  0.97000441  0.43062720     0.02200
C4180       C  0.70866174  0.94282510  0.42140431    -0.15600
C4181       C  0.72946977  0.94174161  0.41116879    -0.10400
C4182       C  0.76657900  0.96824027  0.41046244     0.08900
C4183       C  0.77483446  0.53090602  0.43651996     0.10000
S4184       S  0.69494041  0.96910290  0.44346432    -0.24700
H4185       H  0.68049794  0.92223317  0.42227815     0.20200
S4186       S  0.79591502  0.97067510  0.39761097    -0.30400
H4187       H  0.80840711  0.51716072  0.41777002     0.10500
C4188       C  0.79942490  0.53829237  0.44659857     0.03700
C4189       C  0.81257890  0.57047415  0.45342633    -0.12700
C4190       C  0.80067469  0.59484501  0.45067357    -0.08400
C4191       C  0.77630679  0.58737482  0.44039560     0.07200
C4192       C  0.76376071  0.55552972  0.43344600    -0.13500
S4193       S  0.81324566  0.50641606  0.45098180    -0.30400
H4194       H  0.83234261  0.57669441  0.46089754     0.11400
S4195       S  0.75946619  0.61700160  0.43629279    -0.27500
H4196       H  0.74472880  0.54933867  0.42565980     0.08700
H4197       H  0.77018066  0.96303072  0.38788838     0.27100
H4198       H  0.82983937  0.52285732  0.46266303     0.21900
H4199       H  0.74244976  0.60022303  0.42471514     0.27200
H4200       H  0.72337701  0.48796895  0.45216802     0.16100
C4201       C  0.99688262  0.72151576  0.41494594    -0.11200
C4202       C  0.99967088  0.73716028  0.42700619     0.15300
C4203       C  0.53353537  0.76816053  0.43089448     0.02200
C4204       C  0.56186146  0.78410363  0.42209067    -0.15600
C4205       C  0.55860235  0.76977870  0.40975845    -0.10400
C4206       C  0.52619217  0.73847717  0.40623404     0.08900
C4207       C  0.96696101  0.72335912  0.43504920     0.10000
S4208       S  0.54134520  0.78756824  0.44670759    -0.24700
H4209       H  0.58693227  0.80764973  0.42495560     0.20200
S4210       S  0.51900920  0.71831919  0.39054482    -0.30400
H4211       H  0.97168104  0.69808832  0.41212799     0.10500
C4212       C  0.94856038  0.74265955  0.43634784     0.03700
C4213       C  0.91804776  0.72911608  0.44421577    -0.12700
C4214       C  0.90530319  0.69660494  0.45077946    -0.08400
C4215       C  0.92352144  0.67697991  0.44931313     0.07200
C4216       C  0.95401775  0.69054119  0.44140105    -0.13500
S4217       S  0.96346538  0.78419346  0.42778001    -0.30400
H4218       H  0.90458356  0.74443684  0.44554013     0.11400
S4219       S  0.90917682  0.63412367  0.45678016    -0.27500
H4220       H  0.96802790  0.67557153  0.44026603     0.08700
H4221       H  0.53862978  0.75080524  0.38382812     0.27100
H4222       H  0.93580499  0.79040009  0.43197466     0.21900
H4223       H  0.88792563  0.63611688  0.46656722     0.27200
H4224       H  0.51608970  0.75621861  0.45310499     0.16100
C4225       C  0.77480068  0.78644000  0.42169569    -0.11200
C4226       C  0.76276742  0.74970124  0.42070772     0.15300
C4227       C  0.73560069  0.72864836  0.41170417     0.02200
C4228       C  0.72049549  0.74457780  0.40412072    -0.15600
C4229       C  0.73224755  0.78134229  0.40514835    -0.10400
C4230       C  0.75969984  0.80241958  0.41413321     0.08900
C4231       C  0.77667515  0.73352150  0.42996977     0.10000
S4232       S  0.71892895  0.68133302  0.40949963    -0.24700
H4233       H  0.69954665  0.72813956  0.39727844     0.20200
S4234       S  0.77482859  0.84909133  0.41714640    -0.30400
H4235       H  0.79513232  0.80248233  0.42878522     0.10500
C4236       C  0.81221137  0.73976288  0.42928666     0.03700
C4237       C  0.82381539  0.72338585  0.43823113    -0.12700
C4238       C  0.80094934  0.70120482  0.44799365    -0.08400
C4239       C  0.76485377  0.69434309  0.44839681     0.07200
C4240       C  0.75343427  0.71100686  0.43951016    -0.13500
S4241       S  0.84242786  0.76772881  0.41680139    -0.30400
H4242       H  0.85090651  0.72784276  0.43756726     0.11400
S4243       S  0.73201653  0.66247393  0.45938523    -0.27500
H4244       H  0.72600079  0.70611828  0.43980721     0.08700
H4245       H  0.74004926  0.84497568  0.41660414     0.27100
H4246       H  0.87197385  0.76362004  0.42024679     0.21900
H4247       H  0.70206890  0.66493323  0.45518313     0.27200
H4248       H  0.75111201  0.68217016  0.41300657     0.16100
loop_ 
_geom_bond_atom_site_label_1 
_geom_bond_atom_site_label_2 
_geom_bond_distance 
_geom_bond_site_symmetry_2 
_ccdc_geom_bond_type 
Zn1           O5   1.953       .  S
Zn1           O6   2.011       .  S
Zn1          O10   2.000       .  S
Zn1          O17   2.026       .  S
Zn2           O5   1.955       .  S
Zn2           O7   2.021       .  S
Zn2           O9   2.015       .  S
Zn2          O13   2.027       .  S
Zn3           O5   1.954       .  S
Zn3           O8   2.019       .  S
Zn3          O11   2.015       .  S
Zn3          O14   2.056       .  S
Zn4           O5   1.917       .  S
Zn4          O12   1.971       .  S
Zn4          O15   1.966       .  S
Zn4          O16   1.974       .  S
O6           C18   1.273       .  A
O7           C19   1.275       .  A
O8           C20   1.276       .  A
O9           C18   1.274       .  A
O10          C20   1.272       .  A
O11          C19   1.275       .  A
O12          C21   1.267       .  A
O13          C22   1.274       .  A
O14          C21   1.276       .  A
O15          C22   1.267       .  A
O16          C23   1.268       .  A
O17          C23   1.274       .  A
C18        C1043   1.479       .  S
C19        C1019   1.474       .  S
C20         C995   1.476       .  S
C21         C923   1.471       .  S
C22         C956   1.472       .  S
C23         C971   1.472       .  S
Zn24         O28   1.917       .  S
Zn24         O29   1.953       .  S
Zn24       O3219   1.965       .  S
Zn24       O2164   1.974       .  S
Zn25         O28   1.963       .  S
Zn25         O32   2.043       .  S
Zn25         O36   2.029       .  S
Zn25       O1092   2.027       .  S
Zn26       O3214   1.963   1_455  S
Zn26         O31   2.027       .  S
Zn26         O37   2.003       .  S
Zn26       O2158   2.022       .  S
Zn27       O2152   1.960   1_455  S
Zn27         O39   2.059       .  S
Zn27       O1097   2.024       .  S
Zn27       O2162   2.019   1_455  S
O28       Zn3212   1.961       .  S
O28       Zn2151   1.960       .  S
O29          C41   1.266       .  A
O30       Zn1087   2.031   1_545  S
O30          C42   1.276       .  A
O31          C43   1.273       .  A
O32          C41   1.275       .  A
O33       Zn3210   1.960   1_455  S
O33          C43   1.266       .  A
O34       Zn2150   2.016       .  S
O34          C42   1.273       .  A
O35       Zn1089   2.024   1_545  S
O35          C44   1.275       .  A
O36          C45   1.277       .  A
O37          C44   1.274       .  A
O38       Zn2151   2.015       .  S
O38          C45   1.274       .  A
O39          C46   1.277       .  A
O40       Zn2148   1.972   1_455  S
O40          C46   1.267       .  A
C41         C980   1.465       .  S
C42         C884   1.481       .  S
C43         C947   1.465       .  S
C44         C899   1.476       .  S
C45         C851   1.479       .  S
C46         C932   1.480       .  S
C47          H48   1.110       .  S
C47          C53   1.575       .  S
C47          C52   1.581       .  S
C47          C51   1.574       .  S
C49          H50   1.110       .  S
C49          C55   1.525       .  S
C49          C54   1.546       .  S
C49          C56   1.530       .  S
C51          C54   1.388       .  D
C51         C779   1.525       .  S
C52          C55   1.382       .  D
C52         C812   1.527       .  S
C53          C56   1.370       .  D
C53         C827   1.513       .  S
C54         C731   1.511       .  S
C55         C707   1.493       .  S
C56         C764   1.500       .  S
C57          H58   1.110       .  S
C57          C63   1.540       .  S
C57        C2186   1.518       .  S
C57        C3247   1.535       .  S
C59          H60   1.110       .  S
C59          C66   1.562       .  S
C59        C2189   1.576       .  S
C59        C3250   1.573       .  S
C61        C3243   1.535   1_445  S
C61          C64   1.383       .  D
C61         C683   1.500       .  S
C62        C2181   1.519   1_455  S
C62          C65   1.374       .  D
C62         C668   1.492       .  S
C63          C66   1.376       .  D
C63         C635   1.492       .  S
C64        C3245   1.574   1_455  S
C64         C836   1.523       .  S
C65        C2183   1.576   1_455  S
C65         C788   1.508       .  S
C66         C803   1.515       .  S
C67          H68   1.109       .  S
C67          C73   1.565       .  S
C67          C72   1.567       .  S
C67          C71   1.577       .  S
C69          H70   1.111       .  S
C69          C75   1.533       .  S
C69          C74   1.522       .  S
C69          C76   1.526       .  S
C71          C74   1.379       .  D
C71         C611   1.515       .  S
C72          C75   1.387       .  D
C72         C572   1.516       .  S
C73          C76   1.370       .  D
C73         C587   1.511       .  S
C74         C539   1.494       .  S
C75         C500   1.501       .  S
C76         C515   1.483       .  S
C77          H78   1.109       .  S
C77          C83   1.574       .  S
C77          C82   1.562       .  S
C77          C81   1.562       .  S
C79          H80   1.111       .  S
C79          C85   1.528       .  S
C79          C84   1.538       .  S
C79          C86   1.522       .  S
C81          C84   1.383       .  D
C81         C620   1.510       .  S
C82          C85   1.376       .  D
C82         C596   1.515       .  S
C83          C86   1.375       .  D
C83         C563   1.510       .  S
C84        C1052   1.500       .  S
C85        C1028   1.486       .  S
C86        C1004   1.490       .  S
Zn87         O91   1.955       .  S
Zn87         O92   1.999       .  S
Zn87         O96   2.021       .  S
Zn87        O103   2.034       .  S
Zn88         O91   1.969       .  S
Zn88         O93   2.016       .  S
Zn88         O95   2.020       .  S
Zn88         O99   2.059       .  S
Zn89         O91   1.958       .  S
Zn89         O94   2.017       .  S
Zn89         O97   2.006       .  S
Zn89        O100   2.037       .  S
Zn90         O91   1.909       .  S
Zn90         O98   1.952       .  S
Zn90        O101   1.947       .  S
Zn90        O102   1.960       .  S
O92         C104   1.272       .  A
O93         C105   1.274       .  A
O94         C106   1.274       .  A
O95         C104   1.275       .  A
O96         C106   1.275       .  A
O97         C105   1.274       .  A
O98         C107   1.266       .  A
O99         C108   1.276       .  A
O100        C107   1.274       .  A
O101        C108   1.264       .  A
O102        C109   1.266       .  A
O103        C109   1.273       .  A
C104        C491   1.476       .  S
C105        C524   1.466       .  S
C106        C548   1.484       .  S
C107        C452   1.466       .  S
C108        C419   1.473       .  S
C109        C467   1.463       .  S
Zn110       O114   1.912       .  S
Zn110       O126   1.957   1_655  S
Zn110      O2239   1.946       .  S
Zn110      O3305   1.953   1_545  S
Zn111      O2238   1.962       .  S
Zn111       O118   2.051       .  S
Zn111      O1178   2.011   1_545  S
Zn111      O2246   2.022       .  S
Zn112      O3300   1.962       .  S
Zn112       O117   2.047       .  S
Zn112       O120   2.027       .  S
Zn112      O2247   2.030       .  S
Zn113       O114   1.962   1_455  S
Zn113       O124   2.028       .  S
Zn113       O125   2.042       .  S
Zn113      O1183   2.014   1_545  S
O114      Zn2235   1.961       .  S
O114      Zn3298   1.966   1_545  S
O115      Zn2234   1.939       .  S
O115        C127   1.263       .  A
O116      Zn1173   2.016       .  S
O116        C128   1.276       .  A
O117        C129   1.275       .  A
O118        C127   1.274       .  A
O119      Zn3296   1.951       .  S
O119        C129   1.266       .  A
O120        C128   1.277       .  A
O121      Zn1175   2.011       .  S
O121        C130   1.274       .  A
O122      Zn2235   2.019   1_455  S
O122        C131   1.275       .  A
O123      Zn2236   2.030       .  S
O123        C130   1.276   1_655  A
O124        C131   1.275       .  A
O125        C132   1.274       .  A
O126        C132   1.265       .  A
C127        C428   1.464       .  S
C128        C716   1.479       .  S
C129        C443   1.478       .  S
C130        C740   1.479       .  S
C131        C755   1.477       .  S
C132        C476   1.473       .  S
C133        H134   1.108       .  S
C133        C139   1.574       .  S
C133        C138   1.566       .  S
C133        C137   1.567       .  S
C135        H136   1.112       .  S
C135        C141   1.530       .  S
C135        C140   1.541       .  S
C135        C142   1.528       .  S
C137        C140   1.382       .  D
C137        C395   1.520       .  S
C138        C141   1.376       .  D
C138        C347   1.499       .  S
C139        C142   1.378       .  D
C139        C371   1.526       .  S
C140        C908   1.496       .  S
C141        C875   1.501       .  S
C142        C860   1.490       .  S
C143        H144   1.112       .  S
C143        C147   1.529   1_565  S
C143       C2273   1.513   1_565  S
C143       C1210   1.533       .  S
C145        H146   1.104       .  S
C145        C150   1.572   1_565  S
C145       C1213   1.564       .  S
C145       C2276   1.584   1_565  S
C147        C150   1.392       .  D
C147        C308   1.487       .  S
C148       C1205   1.533       .  S
C148        C151   1.375       .  D
C148        C284   1.491       .  S
C149       C2267   1.514   1_445  S
C149        C152   1.374       .  D
C149        C332   1.496       .  S
C150        C356   1.536       .  S
C151       C1207   1.567       .  S
C151        C380   1.521       .  S
C152       C2269   1.583   1_445  S
C152        C404   1.510       .  S
Zn153       O157   1.954       .  S
Zn153       O158   2.022       .  S
Zn153       O162   2.009       .  S
Zn153       O169   1.997       .  S
Zn154       O157   1.944       .  S
Zn154       O159   2.013       .  S
Zn154       O161   2.009       .  S
Zn154       O165   2.008       .  S
Zn155       O157   1.955       .  S
Zn155       O160   2.007       .  S
Zn155       O163   2.009       .  S
Zn155       O166   2.015       .  S
Zn156       O157   1.951       .  S
Zn156       O164   1.992       .  S
Zn156       O167   2.014       .  S
Zn156       O168   2.000       .  S
O158        C170   1.273       .  A
O159        C171   1.274       .  A
O160        C172   1.272       .  A
O161        C170   1.274       .  A
O162        C172   1.272       .  A
O163        C171   1.273       .  A
O164        C173   1.270       .  A
O165        C174   1.272       .  A
O166        C173   1.273       .  A
O167        C174   1.273       .  A
O168        C175   1.271       .  A
O169        C175   1.271       .  A
C170        C659   1.494       .  S
C171        C644   1.480       .  S
C172        C227   1.472       .  S
C173        C212   1.479       .  S
C174        C692   1.478       .  S
C175        C251   1.474       .  S
Zn176       O180   1.954       .  S
Zn176       O181   2.017       .  S
Zn176       O185   1.992       .  S
Zn176       O192   2.013       .  S
Zn177       O180   1.935       .  S
Zn177       O182   1.997       .  S
Zn177       O184   1.998       .  S
Zn177       O188   2.004       .  S
Zn178       O180   1.960       .  S
Zn178       O183   2.014       .  S
Zn178       O186   2.030       .  S
Zn178       O189   2.015       .  S
Zn179       O180   1.946       .  S
Zn179       O187   1.998       .  S
Zn179       O190   2.006       .  S
Zn179       O191   1.991       .  S
O181        C193   1.274       .  A
O182        C194   1.272       .  A
O183        C195   1.273       .  A
O184        C193   1.271       .  A
O185        C195   1.270       .  A
O186        C194   1.275       .  A
O187        C196   1.271       .  A
O188        C197   1.274       .  A
O189        C196   1.274       .  A
O190        C197   1.271       .  A
O191        C198   1.269       .  A
O192        C198   1.273       .  A
C193        C275   1.479       .  S
C194        C323   1.483       .  S
C195        C203   1.474       .  S
C196        C236   1.482       .  S
C197        C299   1.485       .  S
C198        C260   1.480       .  S
C199        C200   1.399       .  A
C199        C204   1.396   1_556  A
C199        H209   1.084       .  S
C200        C205   1.472       .  S
C200        C201   1.412   1_556  A
C201        C202   1.398       .  A
C201        S206   1.805       .  S
C202        C203   1.403       .  A
C202        H207   1.084       .  S
C203        C204   1.418       .  A
C204        S208   1.805       .  S
C205        C210   1.406       .  A
C205        C214   1.399       .  A
S206        H222   1.405   1_554  S
S208        H219   1.408       .  S
C210        C211   1.400       .  A
C210        S215   1.807       .  S
C211        C212   1.407       .  A
C211        H216   1.083       .  S
C212        C213   1.416       .  A
C213        C214   1.400       .  A
C213        S217   1.809       .  S
C214        H218   1.083       .  S
S215        H220   1.407       .  S
S217        H221   1.407       .  S
C223        C224   1.400       .  A
C223        C228   1.397       .  A
C223        H233   1.084       .  S
C224       C1291   1.474       .  S
C224        C225   1.412       .  A
C225        C226   1.399       .  A
C225       S1292   1.804       .  S
C226        C227   1.402       .  A
C226        H231   1.084       .  S
C227        C228   1.415       .  A
C228        S232   1.805       .  S
C229       C1286   1.475   1_545  S
C229        C234   1.406       .  A
C229        C238   1.400   1_556  A
S230       C1287   1.805   1_545  S
S230        H246   1.405       .  S
S232        H243   1.407       .  S
C234        C235   1.401   1_556  A
C234        S239   1.806       .  S
C235        C236   1.408       .  A
C235        H240   1.082       .  S
C236        C237   1.417       .  A
C237        C238   1.398       .  A
C237        S241   1.803       .  S
C238        H242   1.084   1_545  S
S239        H244   1.407       .  S
S241        H245   1.407       .  S
C247        C248   1.401       .  A
C247        C252   1.397       .  A
C247       H2381   1.084   1_455  S
C248       C2377   1.470   1_455  S
C248        C249   1.408       .  A
C249        C250   1.396       .  A
C249        S254   1.804       .  S
C250        C251   1.406       .  A
C250        H255   1.084       .  S
C251        C252   1.414       .  A
C252        S256   1.803       .  S
C253       C2372   1.470       .  S
C253        C258   1.406   1_556  A
C253        C262   1.397       .  A
S254        H270   1.406   1_556  S
S256        H267   1.407       .  S
H257       C2371   1.084       .  S
C258        C259   1.401       .  A
C258       S2387   1.806       .  S
C259        C260   1.407       .  A
C259        H264   1.082       .  S
C260        C261   1.420       .  A
C261        C262   1.395   1_554  A
C261        S265   1.804       .  S
C262        H266   1.084       .  S
S263       C2382   1.806   1_455  S
S263        H268   1.407       .  S
S265        H269   1.408       .  S
C271        C272   1.398       .  A
C271        C276   1.396       .  A
C271        H281   1.084       .  S
C272        C277   1.471       .  S
C272        C273   1.411       .  A
C273        C274   1.398       .  A
C273        S278   1.806       .  S
C274        C275   1.405       .  A
C274        H279   1.084       .  S
C275        C276   1.418       .  A
C276        S280   1.804       .  S
C277        C282   1.404       .  A
C277        C286   1.399       .  A
S278        H294   1.404       .  S
S280        H291   1.408       .  S
C282        C283   1.397       .  A
C282        S287   1.807       .  S
C283        C284   1.404       .  A
C283        H288   1.074       .  S
C284        C285   1.421       .  A
C285        C286   1.398       .  A
C285       S2413   1.805       .  S
C286        H290   1.084       .  S
S287        H292   1.407       .  S
S289       C2409   1.805   1_455  S
S289        H293   1.399       .  S
C295        C296   1.403       .  A
C295        C300   1.399       .  A
C295        H305   1.084       .  S
C296        C301   1.482       .  S
C296        C297   1.416       .  A
C297        C298   1.395       .  A
C297        S302   1.808       .  S
C298        C299   1.405       .  A
C298        H303   1.084       .  S
C299        C300   1.418       .  A
C300        S304   1.802       .  S
C301        C306   1.413       .  A
C301        C310   1.402       .  A
S302        H318   1.397       .  S
S304        H315   1.407       .  S
C306        C307   1.400       .  A
C306        S311   1.808   1_545  S
C307        C308   1.402       .  A
C307        H312   1.080   1_545  S
C308        C309   1.408       .  A
C309        C310   1.396       .  A
C309       S2437   1.789       .  S
C310        H314   1.084       .  S
S311        H316   1.407       .  S
S313       C2433   1.790   1_455  S
S313        H317   1.406       .  S
C319        C320   1.402       .  A
C319        C324   1.401       .  A
C319        H329   1.084       .  S
C320        C325   1.475       .  S
C320        C321   1.410       .  A
C321        C322   1.396       .  A
C321        S326   1.808       .  S
C322        C323   1.407       .  A
C322        H327   1.084       .  S
C323        C324   1.416       .  A
C324        S328   1.802       .  S
C325        C330   1.406       .  A
C325        C334   1.397       .  A
S326        H342   1.403       .  S
S328        H339   1.407       .  S
C330        C331   1.402       .  A
C330        S335   1.805       .  S
C331        C332   1.405       .  A
C331        H336   1.077       .  S
C332        C333   1.415       .  A
C333        C334   1.399       .  A
C333       S1399   1.798   1_545  S
C334        H338   1.083       .  S
S335        H340   1.407       .  S
S337       C1395   1.799       .  S
S337        H341   1.406       .  S
C343        C344   1.408       .  A
C343        C348   1.407       .  A
C343        H353   1.084       .  S
C344        C349   1.512       .  S
C344        C345   1.421       .  A
C345        C346   1.407       .  A
C345        S350   1.806       .  S
C346        C347   1.403       .  A
C346        H351   1.084       .  S
C347        C348   1.419       .  A
C348        S352   1.808       .  S
C349        C354   1.411       .  A
C349        C358   1.410       .  A
S350        H366   1.406       .  S
S352        H363   1.400       .  S
C354        C355   1.403       .  A
C354        S359   1.810       .  S
C355        C356   1.410       .  A
C355        H360   1.072       .  S
C356        C357   1.424       .  A
C357        C358   1.418       .  A
C357        S361   1.802       .  S
C358        H362   1.082       .  S
S359        H364   1.405       .  S
S361       H2489   1.406       .  S
H365       S2485   1.407   1_455  S
C367        C368   1.410       .  A
C367        C372   1.416       .  A
C367        H377   1.083       .  S
C368        C373   1.517       .  S
C368        C369   1.418       .  A
C369        C370   1.410       .  A
C369        S374   1.804       .  S
C370        C371   1.411       .  A
C370        H375   1.081       .  S
C371        C372   1.417       .  A
C372        S376   1.792       .  S
C373        C378   1.419       .  A
C373        C382   1.404       .  A
S374        H390   1.405       .  S
S376        H387   1.404       .  S
C378        C379   1.420       .  A
C378        S383   1.802       .  S
C379        C380   1.407       .  A
C379       H2508   1.082       .  S
C380        C381   1.423       .  A
C381        C382   1.409       .  A
C381        S385   1.803       .  S
C382        H386   1.083       .  S
S383       H2512   1.407       .  S
H384       C2503   1.082       .  S
S385        H389   1.401       .  S
H388       S2507   1.407   1_455  S
C391        C392   1.397       .  A
C391        C396   1.401       .  A
C391        H401   1.083       .  S
C392        C397   1.508       .  S
C392        C393   1.421       .  A
C393        C394   1.415       .  A
C393        S398   1.801       .  S
C394        C395   1.409       .  A
C394        H399   1.084       .  S
C395        C396   1.423       .  A
C396        S400   1.793       .  S
C397        C402   1.416       .  A
C397        C406   1.404       .  A
S398        H414   1.404       .  S
S400        H411   1.407       .  S
C402        C403   1.409       .  A
C402        S407   1.808       .  S
C403        C404   1.407       .  A
C403        H408   1.080   1_545  S
C404        C405   1.425       .  A
C405        C406   1.408       .  A
C405        S409   1.801       .  S
C406        H410   1.084       .  S
S407        H412   1.407   1_545  S
S409        H413   1.392       .  S
C415        C416   1.405       .  A
C415        C420   1.401       .  A
C415        H425   1.084       .  S
C416        C421   1.474       .  S
C416        C417   1.407       .  A
C417        C418   1.394       .  A
C417        S422   1.805       .  S
C418        C419   1.407       .  A
C418        H423   1.085       .  S
C419        C420   1.411       .  A
C420        S424   1.801       .  S
C421        C426   1.411       .  A
C421        C430   1.398       .  A
S422        H438   1.406       .  S
S424        H435   1.407       .  S
C426        C427   1.404       .  A
C426        S431   1.806       .  S
C427        C428   1.401       .  A
C427        H432   1.083       .  S
C428        C429   1.414       .  A
C429        C430   1.394       .  A
C429       S2557   1.806       .  S
C430        H434   1.084       .  S
S431        H436   1.407       .  S
S433       C2553   1.806   1_455  S
S433        H437   1.407       .  S
C439        C440   1.407       .  A
C439        C444   1.400       .  A
C439        H449   1.084       .  S
C440        C445   1.476       .  S
C440        C441   1.407       .  A
C441        C442   1.391       .  A
C441        S446   1.805       .  S
C442        C443   1.409       .  A
C442        H447   1.084       .  S
C443        C444   1.412       .  A
C444        S448   1.801       .  S
C445        C450   1.407       .  A
C445        C454   1.406       .  A
S446        H462   1.406       .  S
S448        H459   1.406       .  S
C450        C451   1.395       .  A
C450        S455   1.809       .  S
C451        C452   1.404       .  A
C451        H456   1.083       .  S
C452        C453   1.410       .  A
C453        C454   1.400       .  A
C453        S457   1.803       .  S
C454        H458   1.084       .  S
S455        H460   1.407       .  S
S457        H461   1.406       .  S
C463        C464   1.400       .  A
C463        C468   1.395       .  A
C463        H473   1.084       .  S
C464        C469   1.471       .  S
C464        C465   1.413       .  A
C465        C466   1.398       .  A
C465        S470   1.805       .  S
C466        C467   1.400       .  A
C466        H471   1.084       .  S
C467        C468   1.413       .  A
C468        S472   1.806       .  S
C469        C474   1.405       .  A
C469        C478   1.403       .  A
S470        H486   1.404       .  S
S472        H483   1.407       .  S
C474        C475   1.397       .  A
C474        S479   1.808       .  S
C475        C476   1.406       .  A
C475        H480   1.083   1_545  S
C476        C477   1.412       .  A
C477        C478   1.400       .  A
C477        S481   1.802       .  S
C478        H482   1.084       .  S
S479       H1546   1.407   1_545  S
S481        H485   1.407       .  S
H484       S1541   1.407       .  S
C487        C492   1.395       .  A
C487       C1550   1.398   1_545  A
C487        H497   1.084       .  S
C488        C493   1.471       .  S
C488        C489   1.410       .  A
C488       C1549   1.399       .  A
C489       C1552   1.399       .  A
C489        S494   1.805       .  S
C490        C491   1.405       .  A
C490       C1551   1.398   1_545  A
C490        H495   1.084       .  S
C491        C492   1.417       .  A
C492        S496   1.804       .  S
C493        C498   1.402       .  A
C493        C502   1.395       .  A
S494        H510   1.405       .  S
S496        H507   1.407       .  S
C498        C499   1.399       .  A
C498        S503   1.806       .  S
C499        C500   1.409       .  A
C499        H504   1.078       .  S
C500        C501   1.425       .  A
C501        C502   1.396       .  A
C501        S505   1.801       .  S
C502        H506   1.084       .  S
S503        H508   1.407       .  S
S505        H509   1.384       .  S
C511        C512   1.400       .  A
C511        C516   1.396       .  A
C511        H521   1.084       .  S
C512        C517   1.478       .  S
C512        C513   1.411       .  A
C513        C514   1.398       .  A
C513        S518   1.803       .  S
C514        C515   1.402       .  A
C514        H519   1.081       .  S
C515        C516   1.419       .  A
C516        S520   1.806       .  S
C517       C2646   1.411       .  A
C517       C2650   1.403   1_455  A
S518        H534   1.406       .  S
S520        H531   1.393       .  S
C522        C523   1.400       .  A
C522       C2641   1.411       .  A
C522       S2651   1.808       .  S
C523        C524   1.401       .  A
C523        H528   1.083       .  S
C524        C525   1.412       .  A
C525        C526   1.398       .  A
C525        S529   1.804       .  S
C526       C2641   1.403       .  A
C526        H530   1.084       .  S
S527       C2646   1.808       .  S
S527       H2656   1.407       .  S
S529        H533   1.406       .  S
H532       S2651   1.407       .  S
C535        C536   1.401       .  A
C535        C540   1.399       .  A
C535        H545   1.084       .  S
C536        C541   1.478       .  S
C536        C537   1.410       .  A
C537        C538   1.398       .  A
C537        S542   1.804       .  S
C538        C539   1.406       .  A
C538        H543   1.084       .  S
C539        C540   1.417       .  A
C540        S544   1.799       .  S
C541        C546   1.408       .  A
C541        C550   1.400       .  A
S542        H558   1.405       .  S
S544        H555   1.398       .  S
C546        C547   1.403       .  A
C546        S551   1.807       .  S
C547        C548   1.406       .  A
C547        H552   1.083       .  S
C548        C549   1.418       .  A
C549        C550   1.400       .  A
C549        S553   1.803       .  S
C550        H554   1.084       .  S
S551        H556   1.407       .  S
S553        H557   1.408       .  S
C559        C560   1.402       .  A
C559        C564   1.408       .  A
C559        H569   1.083       .  S
C560       C1627   1.502   1_545  S
C560        C561   1.415       .  A
C561        C562   1.407       .  A
C561        S566   1.800       .  S
C562        C563   1.405       .  A
C562        H567   1.078       .  S
C563        C564   1.418       .  A
C564        S568   1.799       .  S
C565       C1622   1.501       .  S
C565        C570   1.410       .  A
C565        C574   1.408       .  A
S566        H582   1.405       .  S
S568        H579   1.406       .  S
C570        C571   1.405       .  A
C570        S575   1.808       .  S
C571        C572   1.411       .  A
C571        H576   1.079       .  S
C572        C573   1.417       .  A
C573        C574   1.415       .  A
C573        S577   1.804       .  S
C574        H578   1.082       .  S
S575        H580   1.407       .  S
S577        H581   1.407       .  S
C583        C584   1.408       .  A
C583        C588   1.413       .  A
C583        H593   1.082       .  S
C584       C2713   1.509   1_455  S
C584        C585   1.416       .  A
C585        C586   1.406       .  A
C585        S590   1.805       .  S
C586        C587   1.405       .  A
C586        H591   1.078       .  S
C587        C588   1.414       .  A
C588        S592   1.798       .  S
C589       C2708   1.509       .  S
C589        C594   1.415       .  A
C589        C598   1.409       .  A
S590       H2730   1.406   1_455  S
S592        H603   1.406       .  S
C594        C595   1.407       .  A
C594       S2723   1.806       .  S
C595        C596   1.407       .  A
C595        H600   1.081       .  S
C596        C597   1.412       .  A
C597        C598   1.414       .  A
C597        S601   1.796       .  S
C598        H602   1.083       .  S
S599       C2718   1.807       .  S
S599       H2728   1.407       .  S
S601        H605   1.406       .  S
H604       S2723   1.407       .  S
H606       S2714   1.406       .  S
C607        C608   1.395       .  A
C607        C612   1.404       .  A
C607        H617   1.083       .  S
C608        C613   1.495       .  S
C608        C609   1.415       .  A
C609        C610   1.411       .  A
C609        S614   1.801       .  S
C610        C611   1.406       .  A
C610        H615   1.079       .  S
C611        C612   1.424       .  A
C612        S616   1.800       .  S
C613        C618   1.411       .  A
C613        C622   1.406       .  A
S614        H630   1.406       .  S
S616        H627   1.406       .  S
C618        C619   1.402       .  A
C618        S623   1.803       .  S
C619        C620   1.409       .  A
C619        H624   1.083       .  S
C620        C621   1.416       .  A
C621        C622   1.414       .  A
C621        S625   1.803       .  S
C622        H626   1.082       .  S
S623        H628   1.406       .  S
S625        H629   1.406       .  S
C631        C632   1.397       .  A
C631        C636   1.395       .  A
C631        H641   1.084       .  S
C632        C637   1.471       .  S
C632        C633   1.406       .  A
C633        C634   1.397       .  A
C633        S638   1.803       .  S
C634        C635   1.405       .  A
C634       H1701   1.075       .  S
C635        C636   1.419       .  A
C636        S640   1.797       .  S
C637        C642   1.405       .  A
C637        C646   1.398       .  A
S638        H654   1.405       .  S
H639       C1696   1.076   1_545  S
S640        H651   1.385       .  S
C642        C643   1.402       .  A
C642        S647   1.807       .  S
C643        C644   1.408       .  A
C643        H648   1.083       .  S
C644        C645   1.418       .  A
C645        C646   1.396       .  A
C645        S649   1.803       .  S
C646        H650   1.084       .  S
S647        H652   1.407       .  S
S649        H653   1.408       .  S
C655        C656   1.402       .  A
C655        C660   1.400       .  A
C655        H665   1.084       .  S
C656        C661   1.482       .  S
C656        C657   1.410       .  A
C657        C658   1.398       .  A
C657        S662   1.806       .  S
C658        C659   1.411       .  A
C658        H663   1.083       .  S
C659        C660   1.420       .  A
C660        S664   1.802       .  S
C661        C666   1.409       .  A
C661        C670   1.401       .  A
S662        H678   1.406       .  S
S664        H675   1.408       .  S
C666        C667   1.403       .  A
C666        S671   1.806   1_455  S
C667        C668   1.404       .  A
C667        H672   1.079   1_455  S
C668        C669   1.412       .  A
C669        C670   1.400       .  A
C669       S1735   1.798       .  S
C670        H674   1.083       .  S
S671        H676   1.407       .  S
S673       C1731   1.799   1_545  S
S673        H677   1.406       .  S
C679        C680   1.399       .  A
C679        C684   1.401       .  A
C679        H689   1.084       .  S
C680        C685   1.474       .  S
C680        C681   1.407       .  A
C681        C682   1.394       .  A
C681       S2810   1.805       .  S
C682        C683   1.407       .  A
C682       H2811   1.078       .  S
C683        C684   1.423       .  A
C684        S688   1.805       .  S
C685        C690   1.407       .  A
C685        C694   1.399       .  A
S686       C2805   1.804       .  S
S686       H2826   1.405       .  S
H687       C2806   1.077       .  S
S688        H699   1.396       .  S
C690        C691   1.403       .  A
C690        S695   1.806       .  S
C691        C692   1.406       .  A
C691        H696   1.083       .  S
C692        C693   1.416       .  A
C693        C694   1.396       .  A
C693        S697   1.804       .  S
C694        H698   1.084       .  S
S695        H700   1.407       .  S
S697        H701   1.408       .  S
H702       S2810   1.405       .  S
C703        C704   1.400       .  A
C703        C708   1.398       .  A
C703        H713   1.084       .  S
C704        C709   1.474       .  S
C704        C705   1.409       .  A
C705        C706   1.396       .  A
C705        S710   1.804       .  S
C706        C707   1.407       .  A
C706        H711   1.084       .  S
C707        C708   1.416       .  A
C708        S712   1.799       .  S
C709        C714   1.407       .  A
C709        C718   1.400       .  A
S710        H726   1.404       .  S
S712        H723   1.395       .  S
C714        C715   1.402       .  A
C714        S719   1.807       .  S
C715        C716   1.406       .  A
C715        H720   1.083       .  S
C716        C717   1.415       .  A
C717        C718   1.399       .  A
C717        S721   1.803       .  S
C718        H722   1.084       .  S
S719       H1786   1.407       .  S
S721        H725   1.407       .  S
H724       S1781   1.407   1_545  S
C727        C728   1.397       .  A
C727        C732   1.400       .  A
C727        H737   1.085       .  S
C728        C733   1.477       .  S
C728        C729   1.405       .  A
C729        C730   1.397       .  A
C729        S734   1.805       .  S
C730        C731   1.410       .  A
C730        H735   1.078       .  S
C731        C732   1.430       .  A
C732        S736   1.805       .  S
C733        C738   1.408       .  A
C733        C742   1.400       .  A
S734        H750   1.403       .  S
S736        H747   1.381       .  S
C738        C739   1.404       .  A
C738        S743   1.806       .  S
C739        C740   1.406       .  A
C739        H744   1.083       .  S
C740        C741   1.416       .  A
C741        C742   1.399       .  A
C741        S745   1.804       .  S
C742        H746   1.084       .  S
S743       H2872   1.407   1_455  S
S745        H749   1.407       .  S
H748       S2867   1.407       .  S
C751        C752   1.404       .  A
C751        C756   1.401       .  A
C751        H761   1.084       .  S
C752        C757   1.484       .  S
C752        C753   1.415       .  A
C753        C754   1.399       .  A
C753        S758   1.807       .  S
C754        C755   1.403       .  A
C754        H759   1.084       .  S
C755        C756   1.413       .  A
C756        S760   1.804       .  S
C757        C762   1.409       .  A
C757        C766   1.396       .  A
S758        H774   1.404       .  S
S760        H771   1.407       .  S
C762        C763   1.407       .  A
C762        S767   1.805       .  S
C763        C764   1.405       .  A
C763        H768   1.079       .  S
C764        C765   1.421       .  A
C765        C766   1.394       .  A
C765        S769   1.793       .  S
C766        H770   1.084       .  S
S767        H772   1.407       .  S
S769        H773   1.380       .  S
C775        C776   1.398       .  A
C775        C780   1.393       .  A
C775        H785   1.085       .  S
C776        C781   1.506       .  S
C776        C777   1.423       .  A
C777        C778   1.421       .  A
C777        S782   1.803       .  S
C778        C779   1.413       .  A
C778        H783   1.083       .  S
C779        C780   1.419       .  A
C780        S784   1.785       .  S
C781        C786   1.417       .  A
C781        C790   1.402       .  A
S782        H798   1.405       .  S
S784        H795   1.404       .  S
C786        C787   1.419       .  A
C786        S791   1.803       .  S
C787        C788   1.409       .  A
C787       H1854   1.083       .  S
C788        C789   1.414       .  A
C789        C790   1.400       .  A
C789       S2917   1.797   1_455  S
C790        H794   1.083       .  S
S791       H1858   1.407       .  S
H792       C1849   1.083   1_545  S
S793       C2913   1.797       .  S
S793        H797   1.406       .  S
H796       S1853   1.407   1_545  S
C799        C800   1.401       .  A
C799        C804   1.402       .  A
C799        H809   1.084       .  S
C800        C805   1.506       .  S
C800        C801   1.419       .  A
C801        C802   1.415       .  A
C801        S806   1.800       .  S
C802        C803   1.407       .  A
C802        H807   1.082       .  S
C803        C804   1.417       .  A
C804       S1870   1.788       .  S
C805        C810   1.414       .  A
C805        C814   1.397       .  A
S806        H822   1.405       .  S
S808       C1866   1.788   1_545  S
S808        H819   1.407       .  S
C810        C811   1.420       .  A
C810        S815   1.804       .  S
C811        C812   1.411       .  A
C811        H816   1.077       .  S
C812        C813   1.431       .  A
C813        C814   1.402       .  A
C813        S817   1.803       .  S
C814        H818   1.084       .  S
S815        H820   1.407       .  S
S817        H821   1.381       .  S
C823        C824   1.406       .  A
C823        C828   1.415       .  A
C823        H833   1.082       .  S
C824        C829   1.507       .  S
C824        C825   1.416       .  A
C825        C826   1.406       .  A
C825        S830   1.804       .  S
C826        C827   1.406       .  A
C826        H831   1.079       .  S
C827        C828   1.417       .  A
C828        S832   1.797       .  S
C829        C834   1.416       .  A
C829        C838   1.396       .  A
S830        H846   1.407       .  S
S832        H843   1.406       .  S
C834        C835   1.420       .  A
C834        S839   1.805       .  S
C835        C836   1.411       .  A
C835        H840   1.082       .  S
C836        C837   1.432       .  A
C837        C838   1.400       .  A
C837        S841   1.804   1_455  S
C838        H842   1.084       .  S
S839        H844   1.407       .  S
S841        H845   1.387       .  S
C847        C848   1.401       .  A
C847        C852   1.400       .  A
C847        H857   1.084       .  S
C848        C853   1.478       .  S
C848        C849   1.411       .  A
C849        C850   1.399       .  A
C849        S854   1.802       .  S
C850        C851   1.404       .  A
C850        H855   1.084       .  S
C851        C852   1.416       .  A
C852       S2980   1.803       .  S
C853        C858   1.409       .  A
C853        C862   1.397       .  A
S854        H870   1.406       .  S
S856       C2976   1.803       .  S
S856        H867   1.407       .  S
C858        C859   1.406       .  A
C858        S863   1.804       .  S
C859        C860   1.405       .  A
C859        H864   1.082       .  S
C860        C861   1.413       .  A
C861        C862   1.394       .  A
C861        S865   1.793       .  S
C862        H866   1.084       .  S
S863        H868   1.407       .  S
S865        H869   1.398       .  S
C871        C872   1.396       .  A
C871        C876   1.393       .  A
C871        H881   1.085       .  S
C872        C877   1.483       .  S
C872        C873   1.413       .  A
C873        C874   1.406       .  A
C873        S878   1.802       .  S
C874        C875   1.406       .  A
C874        H879   1.084       .  S
C875        C876   1.420       .  A
C876        S880   1.790       .  S
C877        C882   1.411       .  A
C877        C886   1.402       .  A
S878        H894   1.405       .  S
S880        H891   1.383       .  S
C882        C883   1.402       .  A
C882        S887   1.808       .  S
C883        C884   1.404       .  A
C883        H888   1.083       .  S
C884        C885   1.416       .  A
C885        C886   1.403       .  A
C885        S889   1.803       .  S
C886        H890   1.084       .  S
S887        H892   1.407       .  S
S889        H893   1.407       .  S
C895        C896   1.401       .  A
C895        C900   1.399       .  A
C895        H905   1.084       .  S
C896        C901   1.475       .  S
C896        C897   1.411       .  A
C897        C898   1.398       .  A
C897        S902   1.805       .  S
C898        C899   1.405       .  A
C898        H903   1.084       .  S
C899        C900   1.413       .  A
C900        S904   1.800   1_545  S
C901        C906   1.404       .  A
C901        C910   1.399       .  A
S902        H918   1.404       .  S
S904        H915   1.407       .  S
C906        C907   1.400       .  A
C906        S911   1.806       .  S
C907        C908   1.408       .  A
C907        H912   1.081       .  S
C908        C909   1.420       .  A
C909        C910   1.403       .  A
C909        S913   1.807       .  S
C910        H914   1.082       .  S
S911        H916   1.407       .  S
S913        H917   1.406       .  S
C919        C920   1.401       .  A
C919        C924   1.398       .  A
C919        H929   1.084       .  S
C920        C925   1.482       .  S
C920        C921   1.415       .  A
C921        C922   1.402       .  A
C921        S926   1.804       .  S
C922        C923   1.401       .  A
C922        H927   1.084       .  S
C923        C924   1.413       .  A
C924        S928   1.805       .  S
C925        C930   1.412       .  A
C925        C934   1.399       .  A
S926        H942   1.406       .  S
S928        H939   1.407       .  S
C930        C931   1.405       .  A
C930        S935   1.807       .  S
C931        C932   1.403       .  A
C931        H936   1.083       .  S
C932        C933   1.418       .  A
C933        C934   1.398       .  A
C933        S937   1.805   1_455  S
C934        H938   1.084   1_455  S
S935        H940   1.407       .  S
S937        H941   1.407       .  S
C943        C944   1.403       .  A
C943        C948   1.397       .  A
C943        H953   1.084       .  S
C944        C949   1.469       .  S
C944        C945   1.407       .  A
C945        C946   1.393       .  A
C945        S950   1.804       .  S
C946        C947   1.404       .  A
C946        H951   1.084       .  S
C947        C948   1.410       .  A
C948        S952   1.803       .  S
C949        C954   1.404       .  A
C949        C958   1.402       .  A
S950        H966   1.406       .  S
S952        H963   1.407       .  S
C954        C955   1.398       .  A
C954        S959   1.807       .  S
C955        C956   1.407       .  A
C955        H960   1.083       .  S
C956        C957   1.412       .  A
C957        C958   1.397       .  A
C957        S961   1.802       .  S
C958        H962   1.084       .  S
S959        H964   1.407       .  S
S961        H965   1.407       .  S
C967        C968   1.400       .  A
C967        C972   1.399       .  A
C967        H977   1.083       .  S
C968        C973   1.473       .  S
C968        C969   1.412       .  A
C969        C970   1.397       .  A
C969        S974   1.805       .  S
C970        C971   1.402       .  A
C970        H975   1.084       .  S
C971        C972   1.414       .  A
C972        S976   1.809       .  S
C973        C978   1.411       .  A
C973        C982   1.398       .  A
S974        H990   1.405       .  S
S976        H987   1.407       .  S
C978        C979   1.403       .  A
C978        S983   1.806       .  S
C979        C980   1.401       .  A
C979        H984   1.083       .  S
C980        C981   1.413       .  A
C981        C982   1.393       .  A
C981       S2047   1.805       .  S
C982        H986   1.084       .  S
S983        H988   1.407       .  S
S985       C2043   1.805   1_545  S
S985        H989   1.407       .  S
C991        C992   1.399       .  A
C991       C2058   1.398       .  A
C991       H1001   1.084   1_565  S
C992        C997   1.472   1_565  S
C992       C2055   1.408       .  A
C993        C994   1.396       .  A
C993       C2054   1.408       .  A
C993        S998   1.805       .  S
C994        C995   1.405       .  A
C994        H999   1.084       .  S
C995        C996   1.417       .  A
C996       C2053   1.398       .  A
C996       S1000   1.804       .  S
C997       C1002   1.404       .  A
C997       C1006   1.399       .  A
S998       H2076   1.406       .  S
S1000      H1011   1.407       .  S
C1002      C1003   1.400       .  A
C1002      S1007   1.805       .  S
C1003      C1004   1.406       .  A
C1003      H1008   1.079       .  S
C1004      C1005   1.413       .  A
C1005      C1006   1.398       .  A
C1005      S1009   1.804       .  S
C1006      H1010   1.083       .  S
S1007      H1012   1.407       .  S
S1009      H1013   1.406       .  S
H1014      S2060   1.407       .  S
C1015      C1016   1.403       .  A
C1015      C3144   1.401       .  A
C1015      H1025   1.084       .  S
C1016      C1021   1.478       .  S
C1016      C3141   1.411       .  A
C1017      C1018   1.397       .  A
C1017      C3140   1.411       .  A
C1017      S1022   1.802       .  S
C1018      C1019   1.402       .  A
C1018      H1023   1.084       .  S
C1019      C1020   1.414       .  A
C1020      C3139   1.402   1_455  A
C1020      S1024   1.804       .  S
C1021      C1026   1.408       .  A
C1021      C1030   1.401       .  A
S1022      H1038   1.406       .  S
S1024      H1035   1.407       .  S
C1026      C1027   1.398       .  A
C1026      S1031   1.807       .  S
C1027      C1028   1.401       .  A
C1027      H1032   1.084       .  S
C1028      C1029   1.416       .  A
C1029      C1030   1.401       .  A
C1029      S1033   1.805       .  S
C1030      H1034   1.085       .  S
S1031      H1036   1.407       .  S
S1033      H1037   1.398       .  S
C1039      C1040   1.401       .  A
C1039      C1044   1.399       .  A
C1039      H1049   1.084       .  S
C1040      C1045   1.477       .  S
C1040      C1041   1.411       .  A
C1041      C1042   1.398       .  A
C1041      S1046   1.805       .  S
C1042      C1043   1.405       .  A
C1042      H1047   1.084       .  S
C1043      C1044   1.417       .  A
C1044      S1048   1.804       .  S
C1045      C1050   1.405       .  A
C1045      C1054   1.398       .  A
S1046      H1062   1.406       .  S
S1048      H1059   1.407       .  S
C1050      C1051   1.400       .  A
C1050      S1055   1.806       .  S
C1051      C1052   1.404       .  A
C1051      H1056   1.086       .  S
C1052      C1053   1.419       .  A
C1053      C1054   1.401       .  A
C1053      S1057   1.801       .  S
C1054      H1058   1.085       .  S
S1055      H1060   1.407       .  S
S1057      H1061   1.406       .  S
Zn1063     O1067   1.950       .  S
Zn1063     O1068   2.006       .  S
Zn1063     O1072   1.997       .  S
Zn1063     O1079   2.022       .  S
Zn1064     O1067   1.954       .  S
Zn1064     O1069   2.012       .  S
Zn1064     O1071   2.009       .  S
Zn1064     O1075   2.024       .  S
Zn1065     O1067   1.952       .  S
Zn1065     O1070   2.024       .  S
Zn1065     O1073   2.015       .  S
Zn1065     O1076   2.060       .  S
Zn1066     O1067   1.914       .  S
Zn1066     O1074   1.971       .  S
Zn1066     O1077   1.966       .  S
Zn1066     O1078   1.973       .  S
O1068      C1080   1.272       .  A
O1069      C1081   1.274       .  A
O1070      C1082   1.276       .  A
O1071      C1080   1.273       .  A
O1072      C1082   1.271       .  A
O1073      C1081   1.275       .  A
O1074      C1083   1.267       .  A
O1075      C1084   1.273       .  A
O1076      C1083   1.276       .  A
O1077      C1084   1.268       .  A
O1078      C1085   1.268       .  A
O1079      C1085   1.274       .  A
C1080      C2105   1.476       .  S
C1081      C2081   1.471       .  S
C1082      C2057   1.479       .  S
C1083      C1985   1.473       .  S
C1084      C2018   1.472       .  S
C1085      C2033   1.469       .  S
Zn1086     O1090   1.919   1_545  S
Zn1086     O1091   1.957   1_545  S
Zn1086     O2157   1.964       .  S
Zn1086     O3226   1.975   1_545  S
Zn1087     O1090   1.961       .  S
Zn1087     O1094   2.042       .  S
Zn1087     O1098   2.030       .  S
Zn1088     O2152   1.961   1_455  S
Zn1088     O1093   2.028       .  S
Zn1088     O3220   2.018   1_455  S
Zn1088     O1099   1.999       .  S
Zn1089     O3214   1.962   1_465  S
Zn1089     O3224   2.018   1_455  S
Zn1089     O1101   2.060       .  S
O1090     Zn2150   1.960   1_565  S
O1090     Zn3213   1.962       .  S
O1091      C1103   1.267       .  A
O1092      C1104   1.275       .  A
O1093      C1105   1.272       .  A
O1094      C1103   1.275       .  A
O1095     Zn2148   1.961   1_455  S
O1095      C1105   1.266       .  A
O1096     Zn3212   2.019       .  S
O1096      C1104   1.274       .  A
O1097      C1106   1.275       .  A
O1098      C1107   1.277       .  A
O1099      C1106   1.273       .  A
O1100     Zn3213   2.018       .  S
O1100      C1107   1.275       .  A
O1101      C1108   1.277       .  A
O1102     Zn3210   1.972   1_465  S
O1102      C1108   1.267       .  A
C1103      C2042   1.466       .  S
C1104      C1946   1.479       .  S
C1105      C2009   1.465       .  S
C1106      C1961   1.475       .  S
C1107      C1913   1.480       .  S
C1108      C1994   1.479       .  S
C1109      H1110   1.110       .  S
C1109      C1115   1.574       .  S
C1109      C1114   1.580       .  S
C1109      C1113   1.573       .  S
C1111      H1112   1.110       .  S
C1111      C1117   1.526       .  S
C1111      C1116   1.545       .  S
C1111      C1118   1.530       .  S
C1113      C1116   1.387       .  D
C1113      C1841   1.523       .  S
C1114      C1117   1.382       .  D
C1114      C1874   1.527       .  S
C1115      C1118   1.370       .  D
C1115      C1889   1.512       .  S
C1116      C1793   1.511       .  S
C1117      C1769   1.492       .  S
C1118      C1826   1.500       .  S
C1119      H1120   1.110       .  S
C1119      C1125   1.541       .  S
C1119      C3248   1.519       .  S
C1119      C2185   1.536   1_565  S
C1121      H1122   1.110       .  S
C1121      C3251   1.578   1_545  S
C1121      C2188   1.574       .  S
C1121      C1128   1.563   1_545  S
C1123      C2181   1.536   1_455  S
C1123      C1126   1.383       .  D
C1123      C1745   1.500       .  S
C1124      C3243   1.519   1_455  S
C1124      C1127   1.375       .  D
C1124      C1730   1.491       .  S
C1125      C1128   1.375       .  D
C1125      C1697   1.491       .  S
C1126      C2183   1.573   1_455  S
C1126      C1898   1.522       .  S
C1127      C3245   1.577   1_465  S
C1127      C1850   1.510       .  S
C1128      C1865   1.516       .  S
C1129      H1130   1.108       .  S
C1129      C1135   1.565       .  S
C1129      C1134   1.568       .  S
C1129      C1133   1.577       .  S
C1131      H1132   1.111       .  S
C1131      C1137   1.533       .  S
C1131      C1136   1.522       .  S
C1131      C1138   1.525       .  S
C1133      C1136   1.379       .  D
C1133      C1673   1.514       .  S
C1134      C1137   1.387       .  D
C1134      C1634   1.517       .  S
C1135      C1138   1.370       .  D
C1135      C1649   1.511       .  S
C1136      C1601   1.495       .  S
C1137      C1562   1.499       .  S
C1138      C1577   1.482       .  S
C1139      H1140   1.109       .  S
C1139      C1145   1.574       .  S
C1139      C1144   1.563       .  S
C1139      C1143   1.561       .  S
C1141      H1142   1.111       .  S
C1141      C1147   1.528       .  S
C1141      C1146   1.538       .  S
C1141      C1148   1.521       .  S
C1143      C1146   1.383       .  D
C1143      C1682   1.510       .  S
C1144      C1147   1.376       .  D
C1144      C1658   1.514       .  S
C1145      C1148   1.375       .  D
C1145      C1625   1.509       .  S
C1146      C2114   1.499       .  S
C1147      C2090   1.487       .  S
C1148      C2066   1.489       .  S
Zn1149     O1153   1.954       .  S
Zn1149     O1154   1.999       .  S
Zn1149     O1158   2.024       .  S
Zn1149     O1165   2.031       .  S
Zn1150     O1153   1.968       .  S
Zn1150     O1155   2.016       .  S
Zn1150     O1157   2.025       .  S
Zn1150     O1161   2.060       .  S
Zn1151     O1153   1.955       .  S
Zn1151     O1156   2.009       .  S
Zn1151     O1159   2.006       .  S
Zn1151     O1162   2.034       .  S
Zn1152     O1153   1.911       .  S
Zn1152     O1160   1.954       .  S
Zn1152     O1163   1.947       .  S
Zn1152     O1164   1.962       .  S
O1154      C1166   1.272       .  A
O1155      C1167   1.274       .  A
O1156      C1168   1.273       .  A
O1157      C1166   1.276       .  A
O1158      C1168   1.275       .  A
O1159      C1167   1.273       .  A
O1160      C1169   1.266       .  A
O1161      C1170   1.276       .  A
O1162      C1169   1.273       .  A
O1163      C1170   1.264       .  A
O1164      C1171   1.266       .  A
O1165      C1171   1.274       .  A
C1166      C1553   1.477       .  S
C1167      C1586   1.465       .  S
C1168      C1610   1.483       .  S
C1169      C1514   1.464       .  S
C1170      C1481   1.471       .  S
C1171      C1529   1.467       .  S
Zn1172     O1176   1.913       .  S
Zn1172     O3301   1.947       .  S
Zn1172     O2243   1.959       .  S
Zn1172     O1188   1.955   1_655  S
Zn1173     O3300   1.958       .  S
Zn1173     O1180   2.057       .  S
Zn1173     O3308   2.019       .  S
Zn1174     O2238   1.965   1_565  S
Zn1174     O1179   2.053       .  S
Zn1174     O1182   2.020       .  S
Zn1174     O3309   2.025       .  S
Zn1175     O1176   1.962   1_455  S
Zn1175     O1186   2.025       .  S
Zn1175     O1187   2.035       .  S
O1176     Zn3297   1.959       .  S
O1176     Zn2236   1.964       .  S
O1177     Zn3296   1.945       .  S
O1177      C1189   1.264       .  A
O1178      C1190   1.275       .  A
O1179      C1191   1.276       .  A
O1180      C1189   1.275       .  A
O1181     Zn2234   1.946   1_565  S
O1181      C1191   1.265       .  A
O1182      C1190   1.275       .  A
O1183      C1192   1.275       .  A
O1184     Zn3297   2.016   1_455  S
O1184      C1193   1.275       .  A
O1185     Zn3298   2.031   1_455  S
O1185      C1192   1.276       .  A
O1186      C1193   1.275       .  A
O1187      C1194   1.274       .  A
O1188      C1194   1.265       .  A
C1189      C1490   1.469       .  S
C1190      C1778   1.483       .  S
C1191      C1505   1.477       .  S
C1192      C1802   1.481       .  S
C1193      C1817   1.477       .  S
C1194      C1538   1.472       .  S
C1195      H1196   1.108       .  S
C1195      C1201   1.573       .  S
C1195      C1200   1.565       .  S
C1195      C1199   1.565       .  S
C1197      H1198   1.112       .  S
C1197      C1203   1.532       .  S
C1197      C1202   1.542       .  S
C1197      C1204   1.528       .  S
C1199      C1202   1.383       .  D
C1199      C1457   1.518       .  S
C1200      C1203   1.375       .  D
C1200      C1409   1.501       .  S
C1201      C1204   1.378       .  D
C1201      C1433   1.523       .  S
C1202      C1970   1.497       .  S
C1203      C1937   1.500       .  S
C1204      C1922   1.492       .  S
C1205      H1206   1.112       .  S
C1205      C3335   1.515       .  S
C1205      C1209   1.530       .  S
C1207      H1208   1.103       .  S
C1207      C1212   1.574       .  S
C1207      C3338   1.585       .  S
C1209      C1212   1.392       .  D
C1209      C1370   1.487       .  S
C1210      C1213   1.374       .  D
C1210      C1346   1.489       .  S
C1211      C3329   1.515   1_455  S
C1211      C1214   1.373       .  D
C1211      C1394   1.496       .  S
C1212      C1418   1.540       .  S
C1213      C1442   1.519       .  S
C1214      C3331   1.582   1_455  S
C1214      C1466   1.509       .  S
Zn1215     O1219   1.951       .  S
Zn1215     O1220   2.019       .  S
Zn1215     O1224   2.007       .  S
Zn1215     O1231   1.994       .  S
Zn1216     O1219   1.944       .  S
Zn1216     O1221   2.004       .  S
Zn1216     O1223   2.008       .  S
Zn1216     O1227   2.001       .  S
Zn1217     O1219   1.957       .  S
Zn1217     O1222   2.015       .  S
Zn1217     O1225   2.009       .  S
Zn1217     O1228   2.021       .  S
Zn1218     O1219   1.951       .  S
Zn1218     O1226   1.993       .  S
Zn1218     O1229   2.011       .  S
Zn1218     O1230   1.998       .  S
O1220      C1232   1.273       .  A
O1221      C1233   1.273       .  A
O1222      C1234   1.273       .  A
O1223      C1232   1.273       .  A
O1224      C1234   1.272       .  A
O1225      C1233   1.274       .  A
O1226      C1235   1.270       .  A
O1227      C1236   1.271       .  A
O1228      C1235   1.273       .  A
O1229      C1236   1.272       .  A
O1230      C1237   1.271       .  A
O1231      C1237   1.270       .  A
C1232      C1721   1.493       .  S
C1233      C1706   1.476       .  S
C1234      C1289   1.474       .  S
C1235      C1274   1.480       .  S
C1236      C1754   1.476       .  S
C1237      C1313   1.472       .  S
Zn1238     O1242   1.953       .  S
Zn1238     O1243   2.013       .  S
Zn1238     O1247   1.993       .  S
Zn1238     O1254   2.012       .  S
Zn1239     O1242   1.935       .  S
Zn1239     O1244   1.997       .  S
Zn1239     O1246   1.992       .  S
Zn1239     O1250   2.005       .  S
Zn1240     O1242   1.959       .  S
Zn1240     O1245   2.019       .  S
Zn1240     O1248   2.032       .  S
Zn1240     O1251   2.012       .  S
Zn1241     O1242   1.943       .  S
Zn1241     O1249   1.996       .  S
Zn1241     O1252   2.003       .  S
Zn1241     O1253   1.988       .  S
O1243      C1255   1.274       .  A
O1244      C1256   1.272       .  A
O1245      C1257   1.274       .  A
O1246      C1255   1.271       .  A
O1247      C1257   1.270       .  A
O1248      C1256   1.275       .  A
O1249      C1258   1.271       .  A
O1250      C1259   1.273       .  A
O1251      C1258   1.274       .  A
O1252      C1259   1.270       .  A
O1253      C1260   1.269       .  A
O1254      C1260   1.273       .  A
C1255      C1337   1.474       .  S
C1256      C1385   1.484       .  S
C1257      C1265   1.476       .  S
C1258      C1298   1.482       .  S
C1259      C1361   1.485       .  S
C1260      C1322   1.479       .  S
C1261      C1262   1.399       .  A
C1261      C1266   1.397   1_556  A
C1261      H1271   1.084       .  S
C1262      C1267   1.475       .  S
C1262      C1263   1.412   1_556  A
C1263      C1264   1.398       .  A
C1263      S1268   1.804       .  S
C1264      C1265   1.403       .  A
C1264      H1269   1.084       .  S
C1265      C1266   1.418       .  A
C1266      S1270   1.805       .  S
C1267      C1272   1.407       .  A
C1267      C1276   1.399       .  A
S1268      H1284   1.405   1_554  S
S1270      H1281   1.408       .  S
C1272      C1273   1.401       .  A
C1272      S1277   1.807       .  S
C1273      C1274   1.407       .  A
C1273      H1278   1.083       .  S
C1274      C1275   1.416       .  A
C1275      C1276   1.401       .  A
C1275      S1279   1.809       .  S
C1276      H1280   1.083       .  S
S1277      H1282   1.407       .  S
S1279      H1283   1.407       .  S
C1285      C1286   1.399       .  A
C1285      C1290   1.397       .  A
C1285      H1295   1.084       .  S
C1286      C1287   1.412       .  A
C1287      C1288   1.400       .  A
C1288      C1289   1.403       .  A
C1288      H1293   1.084       .  S
C1289      C1290   1.416       .  A
C1290      S1294   1.805       .  S
C1291      C1296   1.406       .  A
C1291      C1300   1.400   1_556  A
S1292      H1308   1.406       .  S
S1294      H1305   1.407       .  S
C1296      C1297   1.400   1_556  A
C1296      S1301   1.807       .  S
C1297      C1298   1.408       .  A
C1297      H1302   1.082       .  S
C1298      C1299   1.418       .  A
C1299      C1300   1.398       .  A
C1299      S1303   1.803       .  S
C1300      H1304   1.084       .  S
S1301      H1306   1.407       .  S
S1303      H1307   1.407       .  S
C1309      C1310   1.401       .  A
C1309      C1314   1.396       .  A
C1309      H3443   1.084   1_455  S
C1310      C3439   1.469   1_455  S
C1310      C1311   1.408       .  A
C1311      C1312   1.395       .  A
C1311      S1316   1.805       .  S
C1312      C1313   1.405       .  A
C1312      H1317   1.084       .  S
C1313      C1314   1.414       .  A
C1314      S1318   1.804       .  S
C1315      C3434   1.470       .  S
C1315      C1320   1.406   1_556  A
C1315      C1324   1.396       .  A
S1316      H1332   1.405   1_556  S
S1318      H1329   1.407       .  S
H1319      C3433   1.084       .  S
C1320      C1321   1.402       .  A
C1320      S3449   1.806       .  S
C1321      C1322   1.407       .  A
C1321      H1326   1.082       .  S
C1322      C1323   1.420       .  A
C1323      C1324   1.394   1_554  A
C1323      S1327   1.804       .  S
C1324      H1328   1.084       .  S
S1325      C3444   1.806   1_455  S
S1325      H1330   1.407       .  S
S1327      H1331   1.408       .  S
C1333      C1334   1.398       .  A
C1333      C1338   1.395       .  A
C1333      H1343   1.085       .  S
C1334      C1339   1.468       .  S
C1334      C1335   1.410       .  A
C1335      C1336   1.397       .  A
C1335      S1340   1.806       .  S
C1336      C1337   1.404       .  A
C1336      H1341   1.084       .  S
C1337      C1338   1.417       .  A
C1338      S1342   1.804       .  S
C1339      C1344   1.403       .  A
C1339      C1348   1.398       .  A
S1340      H1356   1.404       .  S
S1342      H1353   1.407       .  S
C1344      C1345   1.396       .  A
C1344      S1349   1.807       .  S
C1345      C1346   1.404       .  A
C1345      H1350   1.076       .  S
C1346      C1347   1.421       .  A
C1347      C1348   1.396       .  A
C1347      S3475   1.805       .  S
C1348      H1352   1.084       .  S
S1349      H1354   1.407       .  S
S1351      C3471   1.805   1_455  S
S1351      H1355   1.399       .  S
C1357      C1358   1.403       .  A
C1357      C1362   1.398       .  A
C1357      H1367   1.084       .  S
C1358      C1363   1.481       .  S
C1358      C1359   1.416       .  A
C1359      C1360   1.395       .  A
C1359      S1364   1.808       .  S
C1360      C1361   1.405       .  A
C1360      H1365   1.084       .  S
C1361      C1362   1.418       .  A
C1362      S1366   1.802       .  S
C1363      C1368   1.412       .  A
C1363      C1372   1.402       .  A
S1364      H1380   1.396       .  S
S1366      H1377   1.407       .  S
C1368      C1369   1.399       .  A
C1368      S1373   1.808       .  S
C1369      C1370   1.402       .  A
C1369      H1374   1.079       .  S
C1370      C1371   1.409       .  A
C1371      C1372   1.400       .  A
C1371      S3499   1.797       .  S
C1372      H1376   1.083       .  S
S1373      H1378   1.407       .  S
S1375      C3495   1.797   1_455  S
S1375      H1379   1.406       .  S
C1381      C1382   1.402       .  A
C1381      C1386   1.401       .  A
C1381      H1391   1.084       .  S
C1382      C1387   1.475       .  S
C1382      C1383   1.410       .  A
C1383      C1384   1.396       .  A
C1383      S1388   1.808       .  S
C1384      C1385   1.407       .  A
C1384      H1389   1.084       .  S
C1385      C1386   1.417       .  A
C1386      S1390   1.802       .  S
C1387      C1392   1.405       .  A
C1387      C1396   1.397       .  A
S1388      H1404   1.403       .  S
S1390      H1401   1.407       .  S
C1392      C1393   1.402       .  A
C1392      S1397   1.805       .  S
C1393      C1394   1.405       .  A
C1393      H1398   1.077       .  S
C1394      C1395   1.414       .  A
C1395      C1396   1.400       .  A
C1396      H1400   1.083       .  S
S1397      H1402   1.407       .  S
S1399      H1403   1.407       .  S
C1405      C1406   1.409       .  A
C1405      C1410   1.408       .  A
C1405      H1415   1.083       .  S
C1406      C1411   1.515       .  S
C1406      C1407   1.421       .  A
C1407      C1408   1.407       .  A
C1407      S1412   1.806       .  S
C1408      C1409   1.403       .  A
C1408      H1413   1.084       .  S
C1409      C1410   1.420       .  A
C1410      S1414   1.808       .  S
C1411      C1416   1.412       .  A
C1411      C1420   1.411       .  A
S1412      H1428   1.406       .  S
S1414      H1425   1.400       .  S
C1416      C1417   1.405       .  A
C1416      S1421   1.810       .  S
C1417      C1418   1.411       .  A
C1417      H1422   1.071       .  S
C1418      C1419   1.425       .  A
C1419      C1420   1.419       .  A
C1419      S1423   1.802       .  S
C1420      H1424   1.082       .  S
S1421      H1426   1.405       .  S
S1423      H3551   1.406       .  S
H1427      S3547   1.406       .  S
C1429      C1430   1.410       .  A
C1429      C1434   1.415       .  A
C1429      H1439   1.084       .  S
C1430      C1435   1.513       .  S
C1430      C1431   1.417       .  A
C1431      C1432   1.409       .  A
C1431      S1436   1.804       .  S
C1432      C1433   1.411       .  A
C1432      H1437   1.082       .  S
C1433      C1434   1.416       .  A
C1434      S1438   1.792       .  S
C1435      C1440   1.418       .  A
C1435      C1444   1.404       .  A
S1436      H1452   1.405       .  S
S1438      H1449   1.405       .  S
C1440      C1441   1.419       .  A
C1440      S1445   1.803       .  S
C1441      C1442   1.407       .  A
C1441      H3570   1.082       .  S
C1442      C1443   1.423       .  A
C1443      C1444   1.407       .  A
C1443      S1447   1.803       .  S
C1444      H1448   1.084       .  S
S1445      H3574   1.406       .  S
H1446      C3565   1.082       .  S
S1447      H1451   1.401       .  S
H1450      S3569   1.407   1_455  S
C1453      C1454   1.397       .  A
C1453      C1458   1.400       .  A
C1453      H1463   1.083       .  S
C1454      C1459   1.506       .  S
C1454      C1455   1.421       .  A
C1455      C1456   1.415       .  A
C1455      S1460   1.802       .  S
C1456      C1457   1.409       .  A
C1456      H1461   1.084       .  S
C1457      C1458   1.421       .  A
C1458      S1462   1.792       .  S
C1459      C1464   1.415       .  A
C1459      C1468   1.403       .  A
S1460      H1476   1.404       .  S
S1462      H1473   1.407       .  S
C1464      C1465   1.409       .  A
C1464      S1469   1.808       .  S
C1465      C1466   1.408       .  A
C1465      H1470   1.081       .  S
C1466      C1467   1.424       .  A
C1467      C1468   1.407       .  A
C1467      S1471   1.800       .  S
C1468      H1472   1.084       .  S
S1469      H1474   1.407       .  S
S1471      H1475   1.392       .  S
C1477      C1478   1.405       .  A
C1477      C1482   1.400       .  A
C1477      H1487   1.084       .  S
C1478      C1483   1.475       .  S
C1478      C1479   1.409       .  A
C1479      C1480   1.396       .  A
C1479      S1484   1.805       .  S
C1480      C1481   1.406       .  A
C1480      H1485   1.085       .  S
C1481      C1482   1.410       .  A
C1482      S1486   1.802       .  S
C1483      C1488   1.411       .  A
C1483      C1492   1.398       .  A
S1484      H1500   1.405       .  S
S1486      H1497   1.407       .  S
C1488      C1489   1.404       .  A
C1488      S1493   1.806       .  S
C1489      C1490   1.402       .  A
C1489      H1494   1.083       .  S
C1490      C1491   1.415       .  A
C1491      C1492   1.395       .  A
C1491      S3619   1.806       .  S
C1492      H1496   1.084       .  S
S1493      H1498   1.407       .  S
S1495      C3615   1.806   1_455  S
S1495      H1499   1.407       .  S
C1501      C1502   1.405       .  A
C1501      C1506   1.400       .  A
C1501      H1511   1.084       .  S
C1502      C1507   1.470       .  S
C1502      C1503   1.406       .  A
C1503      C1504   1.392       .  A
C1503      S1508   1.806       .  S
C1504      C1505   1.409       .  A
C1504      H1509   1.084       .  S
C1505      C1506   1.411       .  A
C1506      S1510   1.801       .  S
C1507      C1512   1.405       .  A
C1507      C1516   1.404       .  A
S1508      H1524   1.405       .  S
S1510      H1521   1.406       .  S
C1512      C1513   1.394       .  A
C1512      S1517   1.808       .  S
C1513      C1514   1.403       .  A
C1513      H1518   1.083       .  S
C1514      C1515   1.411       .  A
C1515      C1516   1.401       .  A
C1515      S1519   1.803       .  S
C1516      H1520   1.083       .  S
S1517      H1522   1.407       .  S
S1519      H1523   1.406       .  S
C1525      C1526   1.398       .  A
C1525      C1530   1.395       .  A
C1525      H1535   1.084       .  S
C1526      C1531   1.469       .  S
C1526      C1527   1.412       .  A
C1527      C1528   1.397       .  A
C1527      S1532   1.804       .  S
C1528      C1529   1.401       .  A
C1528      H1533   1.084       .  S
C1529      C1530   1.415       .  A
C1530      S1534   1.806       .  S
C1531      C1536   1.404       .  A
C1531      C1540   1.402       .  A
S1532      H1548   1.405       .  S
S1534      H1545   1.407       .  S
C1536      C1537   1.396       .  A
C1536      S1541   1.808       .  S
C1537      C1538   1.407       .  A
C1537      H1542   1.083       .  S
C1538      C1539   1.413       .  A
C1539      C1540   1.399       .  A
C1539      S1543   1.802       .  S
C1540      H1544   1.084       .  S
S1543      H1547   1.407       .  S
C1549      C1554   1.396       .  A
C1549      H1559   1.084       .  S
C1550      C1555   1.470       .  S
C1550      C1551   1.410       .  A
C1551      S1556   1.804       .  S
C1552      C1553   1.405       .  A
C1552      H1557   1.084       .  S
C1553      C1554   1.417       .  A
C1554      S1558   1.804       .  S
C1555      C1560   1.402       .  A
C1555      C1564   1.395       .  A
S1556      H1572   1.405       .  S
S1558      H1569   1.408       .  S
C1560      C1561   1.398       .  A
C1560      S1565   1.806       .  S
C1561      C1562   1.409       .  A
C1561      H1566   1.078       .  S
C1562      C1563   1.425       .  A
C1563      C1564   1.396       .  A
C1563      S1567   1.801       .  S
C1564      H1568   1.085       .  S
S1565      H1570   1.407       .  S
S1567      H1571   1.384       .  S
C1573      C1574   1.400       .  A
C1573      C1578   1.396       .  A
C1573      H1583   1.084       .  S
C1574      C1579   1.477       .  S
C1574      C1575   1.410       .  A
C1575      C1576   1.398       .  A
C1575      S1580   1.803       .  S
C1576      C1577   1.402       .  A
C1576      H1581   1.080       .  S
C1577      C1578   1.419       .  A
C1578      S1582   1.806       .  S
C1579      C3708   1.411       .  A
C1579      C3712   1.402   1_455  A
S1580      H1596   1.406       .  S
S1582      H1593   1.394       .  S
C1584      C3703   1.411       .  A
C1584      C1585   1.400       .  A
C1584      S3713   1.808       .  S
C1585      C1586   1.401       .  A
C1585      H1590   1.084       .  S
C1586      C1587   1.411       .  A
C1587      C1588   1.398       .  A
C1587      S1591   1.804       .  S
C1588      C3703   1.402       .  A
C1588      H1592   1.084       .  S
S1589      C3708   1.808       .  S
S1589      H3718   1.407       .  S
S1591      H1595   1.406       .  S
H1594      S3713   1.407       .  S
C1597      C1598   1.400       .  A
C1597      C1602   1.398       .  A
C1597      H1607   1.084       .  S
C1598      C1603   1.477       .  S
C1598      C1599   1.410       .  A
C1599      C1600   1.398       .  A
C1599      S1604   1.805       .  S
C1600      C1601   1.407       .  A
C1600      H1605   1.084       .  S
C1601      C1602   1.417       .  A
C1602      S1606   1.798       .  S
C1603      C1608   1.408       .  A
C1603      C1612   1.399       .  A
S1604      H1620   1.405       .  S
S1606      H1617   1.398       .  S
C1608      C1609   1.403       .  A
C1608      S1613   1.806       .  S
C1609      C1610   1.406       .  A
C1609      H1614   1.083       .  S
C1610      C1611   1.418       .  A
C1611      C1612   1.399       .  A
C1611      S1615   1.804       .  S
C1612      H1616   1.085       .  S
S1613      H1618   1.407       .  S
S1615      H1619   1.408       .  S
C1621      C1622   1.401       .  A
C1621      C1626   1.407       .  A
C1621      H1631   1.083       .  S
C1622      C1623   1.415       .  A
C1623      C1624   1.407       .  A
C1623      S1628   1.800       .  S
C1624      C1625   1.405       .  A
C1624      H1629   1.077       .  S
C1625      C1626   1.418       .  A
C1626      S1630   1.797       .  S
C1627      C1632   1.409       .  A
C1627      C1636   1.408       .  A
S1628      H1644   1.405       .  S
S1630      H1641   1.406       .  S
C1632      C1633   1.405       .  A
C1632      S1637   1.807   1_565  S
C1633      C1634   1.411       .  A
C1633      H1638   1.080       .  S
C1634      C1635   1.419       .  A
C1635      C1636   1.415       .  A
C1635      S1639   1.805       .  S
C1636      H1640   1.082       .  S
S1637      H1642   1.407   1_545  S
S1639      H1643   1.407       .  S
C1645      C1646   1.408       .  A
C1645      C1650   1.414       .  A
C1645      H1655   1.083       .  S
C1646      C3775   1.510   1_455  S
C1646      C1647   1.417       .  A
C1647      C1648   1.407       .  A
C1647      S1652   1.804       .  S
C1648      C1649   1.406       .  A
C1648      H1653   1.079       .  S
C1649      C1650   1.414       .  A
C1650      S1654   1.798       .  S
C1651      C3770   1.509       .  S
C1651      C1656   1.415       .  A
C1651      C1660   1.409       .  A
S1652      H3792   1.406   1_455  S
S1654      H1665   1.406       .  S
C1656      C1657   1.406       .  A
C1656      S3785   1.806       .  S
C1657      C1658   1.407       .  A
C1657      H1662   1.081       .  S
C1658      C1659   1.412       .  A
C1659      C1660   1.414       .  A
C1659      S1663   1.796       .  S
C1660      H1664   1.083       .  S
S1661      C3780   1.806       .  S
S1661      H3790   1.407       .  S
S1663      H1667   1.407       .  S
H1666      S3785   1.407       .  S
H1668      S3776   1.406       .  S
C1669      C1670   1.395       .  A
C1669      C1674   1.403       .  A
C1669      H1679   1.083       .  S
C1670      C1675   1.494       .  S
C1670      C1671   1.415       .  A
C1671      C1672   1.411       .  A
C1671      S1676   1.801       .  S
C1672      C1673   1.406       .  A
C1672      H1677   1.079       .  S
C1673      C1674   1.424       .  A
C1674      S1678   1.801       .  S
C1675      C1680   1.411       .  A
C1675      C1684   1.406       .  A
S1676      H1692   1.405       .  S
S1678      H1689   1.406       .  S
C1680      C1681   1.402       .  A
C1680      S1685   1.803       .  S
C1681      C1682   1.409       .  A
C1681      H1686   1.083       .  S
C1682      C1683   1.416       .  A
C1683      C1684   1.413       .  A
C1683      S1687   1.803       .  S
C1684      H1688   1.082       .  S
S1685      H1690   1.406       .  S
S1687      H1691   1.406       .  S
C1693      C1694   1.396       .  A
C1693      C1698   1.393       .  A
C1693      H1703   1.084       .  S
C1694      C1699   1.469       .  S
C1694      C1695   1.407       .  A
C1695      C1696   1.397       .  A
C1695      S1700   1.803   1_565  S
C1696      C1697   1.404       .  A
C1697      C1698   1.420       .  A
C1698      S1702   1.796       .  S
C1699      C1704   1.406       .  A
C1699      C1708   1.398       .  A
S1700      H1716   1.405       .  S
S1702      H1713   1.383       .  S
C1704      C1705   1.402       .  A
C1704      S1709   1.807       .  S
C1705      C1706   1.407       .  A
C1705      H1710   1.083       .  S
C1706      C1707   1.415       .  A
C1707      C1708   1.394       .  A
C1707      S1711   1.803       .  S
C1708      H1712   1.084       .  S
S1709      H1714   1.407       .  S
S1711      H1715   1.408       .  S
C1717      C1718   1.402       .  A
C1717      C1722   1.399       .  A
C1717      H1727   1.084       .  S
C1718      C1723   1.482       .  S
C1718      C1719   1.410       .  A
C1719      C1720   1.398       .  A
C1719      S1724   1.806       .  S
C1720      C1721   1.410       .  A
C1720      H1725   1.083       .  S
C1721      C1722   1.420       .  A
C1722      S1726   1.802       .  S
C1723      C1728   1.409       .  A
C1723      C1732   1.401       .  A
S1724      H1740   1.407       .  S
S1726      H1737   1.408       .  S
C1728      C1729   1.402       .  A
C1728      S1733   1.806   1_455  S
C1729      C1730   1.404       .  A
C1729      H1734   1.079   1_455  S
C1730      C1731   1.412       .  A
C1731      C1732   1.400       .  A
C1732      H1736   1.083       .  S
S1733      H1738   1.407       .  S
S1735      H1739   1.406       .  S
C1741      C1742   1.398       .  A
C1741      C1746   1.400       .  A
C1741      H1751   1.084       .  S
C1742      C1747   1.472       .  S
C1742      C1743   1.406       .  A
C1743      C1744   1.394       .  A
C1743      S3872   1.805       .  S
C1744      C1745   1.407       .  A
C1744      H3873   1.076       .  S
C1745      C1746   1.424       .  A
C1746      S1750   1.805       .  S
C1747      C1752   1.407       .  A
C1747      C1756   1.399       .  A
S1748      C3867   1.805       .  S
S1748      H3888   1.404       .  S
H1749      C3868   1.076       .  S
S1750      H1761   1.396       .  S
C1752      C1753   1.403       .  A
C1752      S1757   1.806       .  S
C1753      C1754   1.406       .  A
C1753      H1758   1.083       .  S
C1754      C1755   1.416       .  A
C1755      C1756   1.395       .  A
C1755      S1759   1.804       .  S
C1756      H1760   1.084       .  S
S1757      H1762   1.407       .  S
S1759      H1763   1.407       .  S
H1764      S3872   1.405       .  S
C1765      C1766   1.400       .  A
C1765      C1770   1.398       .  A
C1765      H1775   1.084       .  S
C1766      C1771   1.473       .  S
C1766      C1767   1.409       .  A
C1767      C1768   1.395       .  A
C1767      S1772   1.805       .  S
C1768      C1769   1.407       .  A
C1768      H1773   1.084       .  S
C1769      C1770   1.416       .  A
C1770      S1774   1.798       .  S
C1771      C1776   1.406       .  A
C1771      C1780   1.399       .  A
S1772      H1788   1.404       .  S
S1774      H1785   1.395       .  S
C1776      C1777   1.402       .  A
C1776      S1781   1.807       .  S
C1777      C1778   1.408       .  A
C1777      H1782   1.082       .  S
C1778      C1779   1.417       .  A
C1779      C1780   1.397       .  A
C1779      S1783   1.802       .  S
C1780      H1784   1.084       .  S
S1783      H1787   1.407       .  S
C1789      C1790   1.396       .  A
C1789      C1794   1.401       .  A
C1789      H1799   1.085       .  S
C1790      C1795   1.478       .  S
C1790      C1791   1.405       .  A
C1791      C1792   1.397       .  A
C1791      S1796   1.805       .  S
C1792      C1793   1.409       .  A
C1792      H1797   1.077       .  S
C1793      C1794   1.430       .  A
C1794      S1798   1.805       .  S
C1795      C1800   1.408       .  A
C1795      C1804   1.400       .  A
S1796      H1812   1.404       .  S
S1798      H1809   1.381       .  S
C1800      C1801   1.405       .  A
C1800      S1805   1.806       .  S
C1801      C1802   1.406       .  A
C1801      H1806   1.083       .  S
C1802      C1803   1.416       .  A
C1803      C1804   1.398       .  A
C1803      S1807   1.804       .  S
C1804      H1808   1.084       .  S
S1805      H3934   1.407   1_455  S
S1807      H1811   1.407       .  S
H1810      S3929   1.407       .  S
C1813      C1814   1.404       .  A
C1813      C1818   1.401       .  A
C1813      H1823   1.084       .  S
C1814      C1819   1.483       .  S
C1814      C1815   1.414       .  A
C1815      C1816   1.398       .  A
C1815      S1820   1.807       .  S
C1816      C1817   1.403       .  A
C1816      H1821   1.084       .  S
C1817      C1818   1.414       .  A
C1818      S1822   1.804       .  S
C1819      C1824   1.409       .  A
C1819      C1828   1.397       .  A
S1820      H1836   1.405       .  S
S1822      H1833   1.407       .  S
C1824      C1825   1.407       .  A
C1824      S1829   1.804       .  S
C1825      C1826   1.406       .  A
C1825      H1830   1.078       .  S
C1826      C1827   1.420       .  A
C1827      C1828   1.393       .  A
C1827      S1831   1.793       .  S
C1828      H1832   1.084       .  S
S1829      H1834   1.407       .  S
S1831      H1835   1.381       .  S
C1837      C1838   1.398       .  A
C1837      C1842   1.394       .  A
C1837      H1847   1.084       .  S
C1838      C1843   1.506       .  S
C1838      C1839   1.422       .  A
C1839      C1840   1.420       .  A
C1839      S1844   1.802       .  S
C1840      C1841   1.413       .  A
C1840      H1845   1.083       .  S
C1841      C1842   1.419       .  A
C1842      S1846   1.786       .  S
C1843      C1848   1.417       .  A
C1843      C1852   1.400       .  A
S1844      H1860   1.405       .  S
S1846      H1857   1.404       .  S
C1848      C1849   1.420       .  A
C1848      S1853   1.803       .  S
C1849      C1850   1.409       .  A
C1850      C1851   1.415       .  A
C1851      C1852   1.399       .  A
C1851      S3979   1.795   1_455  S
C1852      H1856   1.083       .  S
S1855      C3975   1.796       .  S
S1855      H1859   1.406       .  S
C1861      C1862   1.402       .  A
C1861      C1866   1.404       .  A
C1861      H1871   1.084       .  S
C1862      C1867   1.508       .  S
C1862      C1863   1.419       .  A
C1863      C1864   1.415       .  A
C1863      S1868   1.800       .  S
C1864      C1865   1.407       .  A
C1864      H1869   1.082       .  S
C1865      C1866   1.417       .  A
C1867      C1872   1.415       .  A
C1867      C1876   1.397       .  A
S1868      H1884   1.404       .  S
S1870      H1881   1.407       .  S
C1872      C1873   1.420       .  A
C1872      S1877   1.804       .  S
C1873      C1874   1.411       .  A
C1873      H1878   1.078       .  S
C1874      C1875   1.431       .  A
C1875      C1876   1.402       .  A
C1875      S1879   1.804       .  S
C1876      H1880   1.084       .  S
S1877      H1882   1.407       .  S
S1879      H1883   1.380       .  S
C1885      C1886   1.406       .  A
C1885      C1890   1.415       .  A
C1885      H1895   1.082       .  S
C1886      C1891   1.506       .  S
C1886      C1887   1.415       .  A
C1887      C1888   1.406       .  A
C1887      S1892   1.803       .  S
C1888      C1889   1.406       .  A
C1888      H1893   1.079       .  S
C1889      C1890   1.417       .  A
C1890      S1894   1.797       .  S
C1891      C1896   1.416       .  A
C1891      C1900   1.397       .  A
S1892      H1908   1.407       .  S
S1894      H1905   1.406       .  S
C1896      C1897   1.419       .  A
C1896      S1901   1.804       .  S
C1897      C1898   1.411       .  A
C1897      H1902   1.082       .  S
C1898      C1899   1.432       .  A
C1899      C1900   1.401       .  A
C1899      S1903   1.804   1_455  S
C1900      H1904   1.084       .  S
S1901      H1906   1.407       .  S
S1903      H1907   1.387       .  S
C1909      C1910   1.401       .  A
C1909      C1914   1.401       .  A
C1909      H1919   1.084       .  S
C1910      C1915   1.480       .  S
C1910      C1911   1.411       .  A
C1911      C1912   1.400       .  A
C1911      S1916   1.802       .  S
C1912      C1913   1.404       .  A
C1912      H1917   1.084       .  S
C1913      C1914   1.415       .  A
C1914      S4042   1.803       .  S
C1915      C1920   1.409       .  A
C1915      C1924   1.398       .  A
S1916      H1932   1.406       .  S
S1918      C4038   1.803       .  S
S1918      H1929   1.407       .  S
C1920      C1921   1.406       .  A
C1920      S1925   1.804       .  S
C1921      C1922   1.405       .  A
C1921      H1926   1.082       .  S
C1922      C1923   1.414       .  A
C1923      C1924   1.396       .  A
C1923      S1927   1.794       .  S
C1924      H1928   1.084       .  S
S1925      H1930   1.407       .  S
S1927      H1931   1.399       .  S
C1933      C1934   1.395       .  A
C1933      C1938   1.392       .  A
C1933      H1943   1.085       .  S
C1934      C1939   1.482       .  S
C1934      C1935   1.413       .  A
C1935      C1936   1.406       .  A
C1935      S1940   1.802       .  S
C1936      C1937   1.406       .  A
C1936      H1941   1.084       .  S
C1937      C1938   1.419       .  A
C1938      S1942   1.787       .  S
C1939      C1944   1.411       .  A
C1939      C1948   1.402       .  A
S1940      H1956   1.405       .  S
S1942      H1953   1.384       .  S
C1944      C1945   1.402       .  A
C1944      S1949   1.808       .  S
C1945      C1946   1.403       .  A
C1945      H1950   1.083       .  S
C1946      C1947   1.416       .  A
C1947      C1948   1.403       .  A
C1947      S1951   1.803       .  S
C1948      H1952   1.084       .  S
S1949      H1954   1.407       .  S
S1951      H1955   1.407       .  S
C1957      C1958   1.401       .  A
C1957      C1962   1.399       .  A
C1957      H1967   1.084       .  S
C1958      C1963   1.474       .  S
C1958      C1959   1.411       .  A
C1959      C1960   1.398       .  A
C1959      S1964   1.805       .  S
C1960      C1961   1.404       .  A
C1960      H1965   1.084       .  S
C1961      C1962   1.413       .  A
C1962      S1966   1.800       .  S
C1963      C1968   1.403       .  A
C1963      C1972   1.399       .  A
S1964      H1980   1.404       .  S
S1966      H1977   1.407       .  S
C1968      C1969   1.399       .  A
C1968      S1973   1.806       .  S
C1969      C1970   1.408       .  A
C1969      H1974   1.080       .  S
C1970      C1971   1.420       .  A
C1971      C1972   1.403       .  A
C1971      S1975   1.806       .  S
C1972      H1976   1.083       .  S
S1973      H1978   1.407       .  S
S1975      H1979   1.406       .  S
C1981      C1982   1.401       .  A
C1981      C1986   1.398       .  A
C1981      H1991   1.084       .  S
C1982      C1987   1.482       .  S
C1982      C1983   1.415       .  A
C1983      C1984   1.403       .  A
C1983      S1988   1.804       .  S
C1984      C1985   1.402       .  A
C1984      H1989   1.084       .  S
C1985      C1986   1.413       .  A
C1986      S1990   1.805       .  S
C1987      C1992   1.412       .  A
C1987      C1996   1.400       .  A
S1988      H2004   1.406       .  S
S1990      H2001   1.407       .  S
C1992      C1993   1.405       .  A
C1992      S1997   1.807       .  S
C1993      C1994   1.403       .  A
C1993      H1998   1.083       .  S
C1994      C1995   1.417       .  A
C1995      C1996   1.399       .  A
C1995      S1999   1.805   1_455  S
C1996      H2000   1.084   1_455  S
S1997      H2002   1.407       .  S
S1999      H2003   1.407       .  S
C2005      C2006   1.403       .  A
C2005      C2010   1.397       .  A
C2005      H2015   1.084       .  S
C2006      C2011   1.469       .  S
C2006      C2007   1.407       .  A
C2007      C2008   1.394       .  A
C2007      S2012   1.804       .  S
C2008      C2009   1.404       .  A
C2008      H2013   1.084       .  S
C2009      C2010   1.410       .  A
C2010      S2014   1.803       .  S
C2011      C2016   1.403       .  A
C2011      C2020   1.402       .  A
S2012      H2028   1.406       .  S
S2014      H2025   1.407       .  S
C2016      C2017   1.397       .  A
C2016      S2021   1.807       .  S
C2017      C2018   1.407       .  A
C2017      H2022   1.083       .  S
C2018      C2019   1.413       .  A
C2019      C2020   1.397       .  A
C2019      S2023   1.802       .  S
C2020      H2024   1.084       .  S
S2021      H2026   1.407       .  S
S2023      H2027   1.407       .  S
C2029      C2030   1.400       .  A
C2029      C2034   1.399       .  A
C2029      H2039   1.083       .  S
C2030      C2035   1.472       .  S
C2030      C2031   1.413       .  A
C2031      C2032   1.396       .  A
C2031      S2036   1.806       .  S
C2032      C2033   1.402       .  A
C2032      H2037   1.084       .  S
C2033      C2034   1.413       .  A
C2034      S2038   1.809       .  S
C2035      C2040   1.411       .  A
C2035      C2044   1.398       .  A
S2036      H2052   1.405       .  S
S2038      H2049   1.407       .  S
C2040      C2041   1.403       .  A
C2040      S2045   1.807       .  S
C2041      C2042   1.402       .  A
C2041      H2046   1.083       .  S
C2042      C2043   1.414       .  A
C2043      C2044   1.393       .  A
C2044      H2048   1.084       .  S
S2045      H2050   1.407       .  S
S2047      H2051   1.407       .  S
C2053      C2054   1.400       .  A
C2053      H2063   1.084       .  S
C2054      C2059   1.471       .  S
C2055      C2056   1.397       .  A
C2055      S2060   1.805       .  S
C2056      C2057   1.405       .  A
C2056      H2061   1.084       .  S
C2057      C2058   1.418       .  A
C2058      S2062   1.803       .  S
C2059      C2064   1.404       .  A
C2059      C2068   1.398       .  A
S2062      H2073   1.407       .  S
C2064      C2065   1.399       .  A
C2064      S2069   1.805       .  S
C2065      C2066   1.406       .  A
C2065      H2070   1.080       .  S
C2066      C2067   1.414       .  A
C2067      C2068   1.398       .  A
C2067      S2071   1.803       .  S
C2068      H2072   1.084       .  S
S2069      H2074   1.407       .  S
S2071      H2075   1.407       .  S
C2077      C2078   1.403       .  A
C2077      C4206   1.401       .  A
C2077      H2087   1.084       .  S
C2078      C2083   1.479       .  S
C2078      C4203   1.411       .  A
C2079      C4202   1.411   1_455  A
C2079      C2080   1.395       .  A
C2079      S2084   1.802       .  S
C2080      C2081   1.402       .  A
C2080      H2085   1.084       .  S
C2081      C2082   1.413       .  A
C2082      C4201   1.401   1_455  A
C2082      S2086   1.804       .  S
C2083      C2088   1.408       .  A
C2083      C2092   1.401       .  A
S2084      H2100   1.406       .  S
S2086      H2097   1.407       .  S
C2088      C2089   1.399       .  A
C2088      S2093   1.807       .  S
C2089      C2090   1.402       .  A
C2089      H2094   1.084       .  S
C2090      C2091   1.417       .  A
C2091      C2092   1.402       .  A
C2091      S2095   1.806       .  S
C2092      H2096   1.085       .  S
S2093      H2098   1.407       .  S
S2095      H2099   1.397       .  S
C2101      C2102   1.400       .  A
C2101      C2106   1.398       .  A
C2101      H2111   1.084       .  S
C2102      C2107   1.475       .  S
C2102      C2103   1.411       .  A
C2103      C2104   1.398       .  A
C2103      S2108   1.805       .  S
C2104      C2105   1.404       .  A
C2104      H2109   1.084       .  S
C2105      C2106   1.416       .  A
C2106      S2110   1.804       .  S
C2107      C2112   1.405       .  A
C2107      C2116   1.397       .  A
S2108      H2124   1.406       .  S
S2110      H2121   1.407       .  S
C2112      C2113   1.400       .  A
C2112      S2117   1.806       .  S
C2113      C2114   1.404       .  A
C2113      H2118   1.085       .  S
C2114      C2115   1.419       .  A
C2115      C2116   1.400       .  A
C2115      S2119   1.800       .  S
C2116      H2120   1.085       .  S
S2117      H2122   1.407       .  S
S2119      H2123   1.406       .  S
Zn2125     O2129   1.950       .  S
Zn2125     O2130   2.011       .  S
Zn2125     O2134   1.995       .  S
Zn2125     O2141   2.026       .  S
Zn2126     O2129   1.955       .  S
Zn2126     O2131   2.014       .  S
Zn2126     O2133   2.017       .  S
Zn2126     O2137   2.022       .  S
Zn2127     O2129   1.955       .  S
Zn2127     O2132   2.028       .  S
Zn2127     O2135   2.016       .  S
Zn2127     O2138   2.065       .  S
Zn2128     O2129   1.913       .  S
Zn2128     O2136   1.969       .  S
Zn2128     O2139   1.959       .  S
Zn2128     O2140   1.968       .  S
O2130      C2142   1.273       .  A
O2131      C2143   1.274       .  A
O2132      C2144   1.277       .  A
O2133      C2142   1.274       .  A
O2134      C2144   1.271       .  A
O2135      C2143   1.275       .  A
O2136      C2145   1.267       .  A
O2137      C2146   1.273       .  A
O2138      C2145   1.277       .  A
O2139      C2146   1.267       .  A
O2140      C2147   1.267       .  A
O2141      C2147   1.274       .  A
C2142      C3167   1.479       .  S
C2143      C3143   1.471       .  S
C2144      C3119   1.479       .  S
C2145      C3047   1.474       .  S
C2146      C3080   1.468       .  S
C2147      C3095   1.472       .  S
Zn2148     O2152   1.917       .  S
Zn2148     O2153   1.958       .  S
Zn2149     O2152   1.960       .  S
Zn2149     O3216   2.027       .  S
Zn2149     O2156   2.039       .  S
Zn2149     O2160   2.030       .  S
Zn2150     O2155   2.023       .  S
Zn2150     O2161   1.999       .  S
Zn2151     O3221   2.024       .  S
Zn2151     O2163   2.059       .  S
O2153      C2165   1.267       .  A
O2154     Zn3211   2.029   1_545  S
O2154      C2166   1.276       .  A
O2155      C2167   1.272       .  A
O2156      C2165   1.275       .  A
O2157      C2167   1.267       .  A
O2158      C2166   1.274   1_455  A
O2159     Zn3213   2.024   1_545  S
O2159      C2168   1.275       .  A
O2160      C2169   1.277       .  A
O2161      C2168   1.273       .  A
O2162      C2169   1.275       .  A
O2163      C2170   1.277       .  A
O2164      C2170   1.267       .  A
C2165      C3104   1.465       .  S
C2166      C3008   1.482       .  S
C2167      C3071   1.465       .  S
C2168      C3023   1.477       .  S
C2169      C2975   1.482       .  S
C2170      C3056   1.479       .  S
C2171      H2172   1.110       .  S
C2171      C2177   1.574       .  S
C2171      C2176   1.579       .  S
C2171      C2175   1.574       .  S
C2173      H2174   1.110       .  S
C2173      C2179   1.526       .  S
C2173      C2178   1.545       .  S
C2173      C2180   1.529       .  S
C2175      C2178   1.387       .  D
C2175      C2903   1.525       .  S
C2176      C2179   1.382       .  D
C2176      C2936   1.526       .  S
C2177      C2180   1.370       .  D
C2177      C2951   1.512       .  S
C2178      C2855   1.510       .  S
C2179      C2831   1.493       .  S
C2180      C2888   1.499       .  S
C2181      H2182   1.110       .  S
C2181      C2187   1.541       .  S
C2183      H2184   1.110       .  S
C2183      C2190   1.561       .  S
C2185      C2188   1.383       .  D
C2185      C2807   1.501       .  S
C2186      C2189   1.374       .  D
C2186      C2792   1.489       .  S
C2187      C2190   1.375       .  D
C2187      C2759   1.490       .  S
C2188      C2960   1.522       .  S
C2189      C2912   1.510       .  S
C2190      C2927   1.516       .  S
C2191      H2192   1.109       .  S
C2191      C2197   1.564       .  S
C2191      C2196   1.566       .  S
C2191      C2195   1.577       .  S
C2193      H2194   1.111       .  S
C2193      C2199   1.531       .  S
C2193      C2198   1.521       .  S
C2193      C2200   1.524       .  S
C2195      C2198   1.379       .  D
C2195      C2735   1.515       .  S
C2196      C2199   1.386       .  D
C2196      C2696   1.513       .  S
C2197      C2200   1.369       .  D
C2197      C2711   1.510       .  S
C2198      C2663   1.493       .  S
C2199      C2624   1.499       .  S
C2200      C2639   1.481       .  S
C2201      H2202   1.109       .  S
C2201      C2207   1.573       .  S
C2201      C2206   1.562       .  S
C2201      C2205   1.562       .  S
C2203      H2204   1.111       .  S
C2203      C2209   1.529       .  S
C2203      C2208   1.538       .  S
C2203      C2210   1.522       .  S
C2205      C2208   1.383       .  D
C2205      C2744   1.510       .  S
C2206      C2209   1.376       .  D
C2206      C2720   1.514       .  S
C2207      C2210   1.374       .  D
C2207      C2687   1.510       .  S
C2208      C3176   1.501       .  S
C2209      C3152   1.487       .  S
C2210      C3128   1.489       .  S
Zn2211     O2215   1.957       .  S
Zn2211     O2216   2.001       .  S
Zn2211     O2220   2.022       .  S
Zn2211     O2227   2.034       .  S
Zn2212     O2215   1.967       .  S
Zn2212     O2217   2.018       .  S
Zn2212     O2219   2.016       .  S
Zn2212     O2223   2.058       .  S
Zn2213     O2215   1.956       .  S
Zn2213     O2218   2.009       .  S
Zn2213     O2221   2.011       .  S
Zn2213     O2224   2.035       .  S
Zn2214     O2215   1.910       .  S
Zn2214     O2222   1.953       .  S
Zn2214     O2225   1.948       .  S
Zn2214     O2226   1.963       .  S
O2216      C2228   1.273       .  A
O2217      C2229   1.274       .  A
O2218      C2230   1.273       .  A
O2219      C2228   1.275       .  A
O2220      C2230   1.275       .  A
O2221      C2229   1.274       .  A
O2222      C2231   1.265       .  A
O2223      C2232   1.276       .  A
O2224      C2231   1.273       .  A
O2225      C2232   1.264       .  A
O2226      C2233   1.266       .  A
O2227      C2233   1.274       .  A
C2228      C2615   1.476       .  S
C2229      C2648   1.467       .  S
C2230      C2672   1.482       .  S
C2231      C2576   1.464       .  S
C2232      C2543   1.471       .  S
C2233      C2591   1.468       .  S
Zn2234     O2238   1.911       .  S
Zn2234     O2250   1.947       .  S
Zn2235     O3302   2.015   1_545  S
Zn2235     O2242   2.055       .  S
Zn2236     O2241   2.052       .  S
Zn2236     O2244   2.025       .  S
Zn2237     O2238   1.963       .  S
Zn2237     O3307   2.010   1_545  S
Zn2237     O2248   2.023       .  S
Zn2237     O2249   2.040       .  S
O2239      C2251   1.264       .  A
O2240     Zn3297   2.009       .  S
O2240      C2252   1.275       .  A
O2241      C2253   1.276       .  A
O2242      C2251   1.275       .  A
O2243      C2253   1.267       .  A
O2244      C2252   1.276       .  A
O2245     Zn3299   2.012       .  S
O2245      C2254   1.274       .  A
O2246      C2255   1.275       .  A
O2247      C2254   1.276       .  A
O2248      C2255   1.275       .  A
O2249      C2256   1.274       .  A
O2250      C2256   1.264       .  A
C2251      C2552   1.468       .  S
C2252      C2840   1.478       .  S
C2253      C2567   1.484       .  S
C2254      C2864   1.480       .  S
C2255      C2879   1.477       .  S
C2256      C2600   1.471       .  S
C2257      H2258   1.108       .  S
C2257      C2263   1.573       .  S
C2257      C2262   1.565       .  S
C2257      C2261   1.567       .  S
C2259      H2260   1.112       .  S
C2259      C2265   1.530       .  S
C2259      C2264   1.541       .  S
C2259      C2266   1.528       .  S
C2261      C2264   1.382       .  D
C2261      C2519   1.521       .  S
C2262      C2265   1.375       .  D
C2262      C2471   1.500       .  S
C2263      C2266   1.379       .  D
C2263      C2495   1.522       .  S
C2264      C3032   1.494       .  S
C2265      C2999   1.498       .  S
C2266      C2984   1.494       .  S
C2267      H2268   1.112   1_565  S
C2267      C3334   1.533       .  S
C2267      C2271   1.530   1_565  S
C2269      H2270   1.104       .  S
C2269      C3337   1.564       .  S
C2269      C2274   1.572   1_565  S
C2271      C2274   1.392       .  D
C2271      C2432   1.488       .  S
C2272      C3329   1.534       .  S
C2272      C2275   1.374       .  D
C2272      C2408   1.493       .  S
C2273      C2276   1.373       .  D
C2273      C2456   1.496       .  S
C2274      C2480   1.537       .  S
C2275      C3331   1.564       .  S
C2275      C2504   1.516       .  S
C2276      C2528   1.509       .  S
Zn2277     O2281   1.954       .  S
Zn2277     O2282   2.022       .  S
Zn2277     O2286   2.010       .  S
Zn2277     O2293   1.997       .  S
Zn2278     O2281   1.945       .  S
Zn2278     O2283   2.006       .  S
Zn2278     O2285   2.005       .  S
Zn2278     O2289   2.007       .  S
Zn2279     O2281   1.957       .  S
Zn2279     O2284   2.014       .  S
Zn2279     O2287   2.008       .  S
Zn2279     O2290   2.020       .  S
Zn2280     O2281   1.950       .  S
Zn2280     O2288   1.991       .  S
Zn2280     O2291   2.013       .  S
Zn2280     O2292   1.997       .  S
O2282      C2294   1.273       .  A
O2283      C2295   1.274       .  A
O2284      C2296   1.272       .  A
O2285      C2294   1.273       .  A
O2286      C2296   1.272       .  A
O2287      C2295   1.274       .  A
O2288      C2297   1.270       .  A
O2289      C2298   1.272       .  A
O2290      C2297   1.273       .  A
O2291      C2298   1.272       .  A
O2292      C2299   1.271       .  A
O2293      C2299   1.271       .  A
C2294      C2783   1.492       .  S
C2295      C2768   1.476       .  S
C2296      C2351   1.474       .  S
C2297      C2336   1.480       .  S
C2298      C2816   1.476       .  S
C2299      C2375   1.473       .  S
Zn2300     O2304   1.954       .  S
Zn2300     O2305   2.023       .  S
Zn2300     O2309   2.000       .  S
Zn2300     O2316   2.011       .  S
Zn2301     O2304   1.934       .  S
Zn2301     O2306   1.996       .  S
Zn2301     O2308   1.994       .  S
Zn2301     O2312   2.004       .  S
Zn2302     O2304   1.961       .  S
Zn2302     O2307   2.020       .  S
Zn2302     O2310   2.033       .  S
Zn2302     O2313   2.014       .  S
Zn2303     O2304   1.947       .  S
Zn2303     O2311   1.996       .  S
Zn2303     O2314   2.011       .  S
Zn2303     O2315   1.992       .  S
O2305      C2317   1.275       .  A
O2306      C2318   1.272       .  A
O2307      C2319   1.274       .  A
O2308      C2317   1.271       .  A
O2309      C2319   1.271       .  A
O2310      C2318   1.276       .  A
O2311      C2320   1.271       .  A
O2312      C2321   1.273       .  A
O2313      C2320   1.274       .  A
O2314      C2321   1.271       .  A
O2315      C2322   1.269       .  A
O2316      C2322   1.273       .  A
C2317      C2399   1.479       .  S
C2318      C2447   1.484       .  S
C2319      C2327   1.479       .  S
C2320      C2360   1.481       .  S
C2321      C2423   1.486       .  S
C2322      C2384   1.480       .  S
C2323      C2324   1.399       .  A
C2323      C2328   1.397   1_556  A
C2323      H2333   1.084       .  S
C2324      C2329   1.475       .  S
C2324      C2325   1.412   1_556  A
C2325      C2326   1.399       .  A
C2325      S2330   1.805       .  S
C2326      C2327   1.404       .  A
C2326      H2331   1.084       .  S
C2327      C2328   1.418       .  A
C2328      S2332   1.805       .  S
C2329      C2334   1.407       .  A
C2329      C2338   1.400       .  A
S2330      H2346   1.405   1_554  S
S2332      H2343   1.408       .  S
C2334      C2335   1.401       .  A
C2334      S2339   1.807       .  S
C2335      C2336   1.406       .  A
C2335      H2340   1.083       .  S
C2336      C2337   1.416       .  A
C2337      C2338   1.401       .  A
C2337      S2341   1.809       .  S
C2338      H2342   1.083       .  S
S2339      H2344   1.407       .  S
S2341      H2345   1.407       .  S
C2347      C2348   1.400       .  A
C2347      C2352   1.398       .  A
C2347      H2357   1.084       .  S
C2348      C3415   1.476       .  S
C2348      C2349   1.412       .  A
C2349      C2350   1.400       .  A
C2349      S3416   1.804       .  S
C2350      C2351   1.403       .  A
C2350      H2355   1.084       .  S
C2351      C2352   1.416       .  A
C2352      S2356   1.805       .  S
C2353      C3410   1.473   1_545  S
C2353      C2358   1.406       .  A
C2353      C2362   1.399   1_556  A
S2354      C3411   1.805   1_545  S
S2354      H2370   1.405       .  S
S2356      H2367   1.407       .  S
C2358      C2359   1.401   1_556  A
C2358      S2363   1.807       .  S
C2359      C2360   1.408       .  A
C2359      H2364   1.082       .  S
C2360      C2361   1.417       .  A
C2361      C2362   1.397       .  A
C2361      S2365   1.803       .  S
C2362      H2366   1.084   1_545  S
S2363      H2368   1.407       .  S
S2365      H2369   1.408       .  S
C2371      C2372   1.401       .  A
C2371      C2376   1.397       .  A
C2372      C2373   1.408       .  A
C2373      C2374   1.396       .  A
C2373      S2378   1.805       .  S
C2374      C2375   1.406       .  A
C2374      H2379   1.084       .  S
C2375      C2376   1.414       .  A
C2376      S2380   1.803       .  S
C2377      C2382   1.406   1_556  A
C2377      C2386   1.397       .  A
S2378      H2394   1.405   1_556  S
S2380      H2391   1.407       .  S
C2382      C2383   1.401       .  A
C2383      C2384   1.407       .  A
C2383      H2388   1.082       .  S
C2384      C2385   1.420       .  A
C2385      C2386   1.395   1_554  A
C2385      S2389   1.804       .  S
C2386      H2390   1.084       .  S
S2387      H2392   1.407       .  S
S2389      H2393   1.408       .  S
C2395      C2396   1.398       .  A
C2395      C2400   1.396       .  A
C2395      H2405   1.084       .  S
C2396      C2401   1.472       .  S
C2396      C2397   1.411       .  A
C2397      C2398   1.399       .  A
C2397      S2402   1.805       .  S
C2398      C2399   1.405       .  A
C2398      H2403   1.084       .  S
C2399      C2400   1.418       .  A
C2400      S2404   1.804       .  S
C2401      C2406   1.404       .  A
C2401      C2410   1.398       .  A
S2402      H2418   1.405       .  S
S2404      H2415   1.408       .  S
C2406      C2407   1.398       .  A
C2406      S2411   1.806       .  S
C2407      C2408   1.404       .  A
C2407      H2412   1.074       .  S
C2408      C2409   1.422       .  A
C2409      C2410   1.398       .  A
C2410      H2414   1.084       .  S
S2411      H2416   1.407       .  S
S2413      H2417   1.400       .  S
C2419      C2420   1.404       .  A
C2419      C2424   1.399       .  A
C2419      H2429   1.084       .  S
C2420      C2425   1.484       .  S
C2420      C2421   1.416       .  A
C2421      C2422   1.396       .  A
C2421      S2426   1.808       .  S
C2422      C2423   1.406       .  A
C2422      H2427   1.084       .  S
C2423      C2424   1.418       .  A
C2424      S2428   1.802       .  S
C2425      C2430   1.413       .  A
C2425      C2434   1.403       .  A
S2426      H2442   1.397       .  S
S2428      H2439   1.407       .  S
C2430      C2431   1.400       .  A
C2430      S2435   1.808   1_545  S
C2431      C2432   1.402       .  A
C2431      H2436   1.079   1_545  S
C2432      C2433   1.409       .  A
C2433      C2434   1.397       .  A
C2434      H2438   1.083       .  S
S2435      H2440   1.407       .  S
S2437      H2441   1.406       .  S
C2443      C2444   1.402       .  A
C2443      C2448   1.401       .  A
C2443      H2453   1.084       .  S
C2444      C2449   1.475       .  S
C2444      C2445   1.410       .  A
C2445      C2446   1.396       .  A
C2445      S2450   1.808       .  S
C2446      C2447   1.407       .  A
C2446      H2451   1.084       .  S
C2447      C2448   1.416       .  A
C2448      S2452   1.802       .  S
C2449      C2454   1.406       .  A
C2449      C2458   1.397       .  A
S2450      H2466   1.403       .  S
S2452      H2463   1.407       .  S
C2454      C2455   1.402       .  A
C2454      S2459   1.805       .  S
C2455      C2456   1.405       .  A
C2455      H2460   1.077       .  S
C2456      C2457   1.415       .  A
C2457      C2458   1.399       .  A
C2457      S3523   1.798   1_545  S
C2458      H2462   1.083       .  S
S2459      H2464   1.407       .  S
S2461      C3519   1.799       .  S
S2461      H2465   1.406       .  S
C2467      C2468   1.408       .  A
C2467      C2472   1.407       .  A
C2467      H2477   1.084       .  S
C2468      C2473   1.513       .  S
C2468      C2469   1.421       .  A
C2469      C2470   1.407       .  A
C2469      S2474   1.806       .  S
C2470      C2471   1.403       .  A
C2470      H2475   1.084       .  S
C2471      C2472   1.420       .  A
C2472      S2476   1.808       .  S
C2473      C2478   1.411       .  A
C2473      C2482   1.410       .  A
S2474      H2490   1.406       .  S
S2476      H2487   1.400       .  S
C2478      C2479   1.404       .  A
C2478      S2483   1.810       .  S
C2479      C2480   1.410       .  A
C2479      H2484   1.071       .  S
C2480      C2481   1.424       .  A
C2481      C2482   1.418       .  A
C2481      S2485   1.802       .  S
C2482      H2486   1.082       .  S
S2483      H2488   1.405       .  S
C2491      C2492   1.410       .  A
C2491      C2496   1.414       .  A
C2491      H2501   1.084       .  S
C2492      C2497   1.513       .  S
C2492      C2493   1.417       .  A
C2493      C2494   1.408       .  A
C2493      S2498   1.803       .  S
C2494      C2495   1.410       .  A
C2494      H2499   1.082       .  S
C2495      C2496   1.417       .  A
C2496      S2500   1.792       .  S
C2497      C2502   1.418       .  A
C2497      C2506   1.404       .  A
S2498      H2514   1.405       .  S
S2500      H2511   1.405       .  S
C2502      C2503   1.419       .  A
C2502      S2507   1.803       .  S
C2503      C2504   1.406       .  A
C2504      C2505   1.421       .  A
C2505      C2506   1.407       .  A
C2505      S2509   1.802       .  S
C2506      H2510   1.083       .  S
S2509      H2513   1.401       .  S
C2515      C2516   1.397       .  A
C2515      C2520   1.402       .  A
C2515      H2525   1.082       .  S
C2516      C2521   1.506       .  S
C2516      C2517   1.420       .  A
C2517      C2518   1.415       .  A
C2517      S2522   1.802       .  S
C2518      C2519   1.409       .  A
C2518      H2523   1.084       .  S
C2519      C2520   1.425       .  A
C2520      S2524   1.797       .  S
C2521      C2526   1.415       .  A
C2521      C2530   1.403       .  A
S2522      H2538   1.404       .  S
S2524      H2535   1.406       .  S
C2526      C2527   1.409       .  A
C2526      S2531   1.808       .  S
C2527      C2528   1.408       .  A
C2527      H2532   1.081   1_545  S
C2528      C2529   1.425       .  A
C2529      C2530   1.408       .  A
C2529      S2533   1.800       .  S
C2530      H2534   1.084       .  S
S2531      H2536   1.407   1_545  S
S2533      H2537   1.392       .  S
C2539      C2540   1.405       .  A
C2539      C2544   1.401       .  A
C2539      H2549   1.084       .  S
C2540      C2545   1.476       .  S
C2540      C2541   1.409       .  A
C2541      C2542   1.395       .  A
C2541      S2546   1.805       .  S
C2542      C2543   1.406       .  A
C2542      H2547   1.085       .  S
C2543      C2544   1.410       .  A
C2544      S2548   1.802       .  S
C2545      C2550   1.411       .  A
C2545      C2554   1.398       .  A
S2546      H2562   1.405       .  S
S2548      H2559   1.406       .  S
C2550      C2551   1.404       .  A
C2550      S2555   1.806       .  S
C2551      C2552   1.401       .  A
C2551      H2556   1.083       .  S
C2552      C2553   1.415       .  A
C2553      C2554   1.395       .  A
C2554      H2558   1.084       .  S
S2555      H2560   1.407       .  S
S2557      H2561   1.407       .  S
C2563      C2564   1.405       .  A
C2563      C2568   1.402       .  A
C2563      H2573   1.084       .  S
C2564      C2569   1.475       .  S
C2564      C2565   1.406       .  A
C2565      C2566   1.392       .  A
C2565      S2570   1.805       .  S
C2566      C2567   1.410       .  A
C2566      H2571   1.084       .  S
C2567      C2568   1.414       .  A
C2568      S2572   1.801       .  S
C2569      C2574   1.407       .  A
C2569      C2578   1.405       .  A
S2570      H2586   1.406       .  S
S2572      H2583   1.407       .  S
C2574      C2575   1.395       .  A
C2574      S2579   1.808       .  S
C2575      C2576   1.403       .  A
C2575      H2580   1.083       .  S
C2576      C2577   1.410       .  A
C2577      C2578   1.400       .  A
C2577      S2581   1.804       .  S
C2578      H2582   1.084       .  S
S2579      H2584   1.407       .  S
S2581      H2585   1.406       .  S
C2587      C2588   1.398       .  A
C2587      C2592   1.394       .  A
C2587      H2597   1.084       .  S
C2588      C2593   1.469       .  S
C2588      C2589   1.413       .  A
C2589      C2590   1.399       .  A
C2589      S2594   1.805       .  S
C2590      C2591   1.401       .  A
C2590      H2595   1.084       .  S
C2591      C2592   1.415       .  A
C2592      S2596   1.806       .  S
C2593      C2598   1.404       .  A
C2593      C2602   1.403       .  A
S2594      H2610   1.404       .  S
S2596      H2607   1.407       .  S
C2598      C2599   1.396       .  A
C2598      S2603   1.808       .  S
C2599      C2600   1.407       .  A
C2599      H2604   1.083       .  S
C2600      C2601   1.411       .  A
C2601      C2602   1.399       .  A
C2601      S2605   1.802       .  S
C2602      H2606   1.084       .  S
S2603      H3670   1.407   1_545  S
S2605      H2609   1.407       .  S
H2608      S3665   1.407       .  S
C2611      C3674   1.399   1_545  A
C2611      C2616   1.396       .  A
C2611      H2621   1.085       .  S
C2612      C2617   1.469       .  S
C2612      C3673   1.398       .  A
C2612      C2613   1.410       .  A
C2613      C3676   1.398       .  A
C2613      S2618   1.804       .  S
C2614      C3675   1.397   1_545  A
C2614      C2615   1.405       .  A
C2614      H2619   1.084       .  S
C2615      C2616   1.417       .  A
C2616      S2620   1.804       .  S
C2617      C2622   1.402       .  A
C2617      C2626   1.395       .  A
S2618      H2634   1.405       .  S
S2620      H2631   1.408       .  S
C2622      C2623   1.398       .  A
C2622      S2627   1.806       .  S
C2623      C2624   1.408       .  A
C2623      H2628   1.078       .  S
C2624      C2625   1.425       .  A
C2625      C2626   1.395       .  A
C2625      S2629   1.801       .  S
C2626      H2630   1.085       .  S
S2627      H2632   1.407       .  S
S2629      H2633   1.383       .  S
C2635      C2636   1.400       .  A
C2635      C2640   1.395       .  A
C2635      H2645   1.084       .  S
C2636      C2641   1.478       .  S
C2636      C2637   1.411       .  A
C2637      C2638   1.397       .  A
C2637      S2642   1.803       .  S
C2638      C2639   1.402       .  A
C2638      H2643   1.082       .  S
C2639      C2640   1.418       .  A
C2640      S2644   1.806       .  S
S2642      H2658   1.406       .  S
S2644      H2655   1.394       .  S
C2646      C2647   1.400   1_455  A
C2647      C2648   1.401       .  A
C2647      H2652   1.083       .  S
C2648      C2649   1.412       .  A
C2649      C2650   1.399       .  A
C2649      S2653   1.804       .  S
C2650      H2654   1.084       .  S
S2653      H2657   1.406       .  S
C2659      C2660   1.400       .  A
C2659      C2664   1.398       .  A
C2659      H2669   1.084       .  S
C2660      C2665   1.476       .  S
C2660      C2661   1.409       .  A
C2661      C2662   1.397       .  A
C2661      S2666   1.804       .  S
C2662      C2663   1.407       .  A
C2662      H2667   1.084       .  S
C2663      C2664   1.416       .  A
C2664      S2668   1.798       .  S
C2665      C2670   1.408       .  A
C2665      C2674   1.399       .  A
S2666      H2682   1.405       .  S
S2668      H2679   1.398       .  S
C2670      C2671   1.402       .  A
C2670      S2675   1.807       .  S
C2671      C2672   1.406       .  A
C2671      H2676   1.083       .  S
C2672      C2673   1.418       .  A
C2673      C2674   1.398       .  A
C2673      S2677   1.803       .  S
C2674      H2678   1.084       .  S
S2675      H2680   1.407       .  S
S2677      H2681   1.408       .  S
C2683      C2684   1.402       .  A
C2683      C2688   1.408       .  A
C2683      H2693   1.083       .  S
C2684      C3751   1.501   1_545  S
C2684      C2685   1.414       .  A
C2685      C2686   1.407       .  A
C2685      S2690   1.800       .  S
C2686      C2687   1.405       .  A
C2686      H2691   1.077       .  S
C2687      C2688   1.418       .  A
C2688      S2692   1.799       .  S
C2689      C3746   1.498       .  S
C2689      C2694   1.409       .  A
C2689      C2698   1.408       .  A
S2690      H2706   1.405       .  S
S2692      H2703   1.406       .  S
C2694      C2695   1.403       .  A
C2694      S2699   1.807       .  S
C2695      C2696   1.410       .  A
C2695      H2700   1.079       .  S
C2696      C2697   1.417       .  A
C2697      C2698   1.414       .  A
C2697      S2701   1.805       .  S
C2698      H2702   1.082       .  S
S2699      H2704   1.407       .  S
S2701      H2705   1.407       .  S
C2707      C2708   1.408       .  A
C2707      C2712   1.412       .  A
C2707      H2717   1.083       .  S
C2708      C2709   1.417       .  A
C2709      C2710   1.407       .  A
C2709      S2714   1.805       .  S
C2710      C2711   1.406       .  A
C2710      H2715   1.079       .  S
C2711      C2712   1.413       .  A
C2712      S2716   1.798       .  S
C2713      C2718   1.415       .  A
C2713      C2722   1.409       .  A
S2716      H2727   1.406       .  S
C2718      C2719   1.407       .  A
C2719      C2720   1.407       .  A
C2719      H2724   1.081       .  S
C2720      C2721   1.412       .  A
C2721      C2722   1.414       .  A
C2721      S2725   1.796       .  S
C2722      H2726   1.082       .  S
S2725      H2729   1.406       .  S
C2731      C2732   1.395       .  A
C2731      C2736   1.403       .  A
C2731      H2741   1.083       .  S
C2732      C2737   1.495       .  S
C2732      C2733   1.415       .  A
C2733      C2734   1.412       .  A
C2733      S2738   1.801       .  S
C2734      C2735   1.406       .  A
C2734      H2739   1.080       .  S
C2735      C2736   1.424       .  A
C2736      S2740   1.800       .  S
C2737      C2742   1.412       .  A
C2737      C2746   1.406       .  A
S2738      H2754   1.406       .  S
S2740      H2751   1.406       .  S
C2742      C2743   1.402       .  A
C2742      S2747   1.803       .  S
C2743      C2744   1.409       .  A
C2743      H2748   1.083       .  S
C2744      C2745   1.416       .  A
C2745      C2746   1.413       .  A
C2745      S2749   1.803       .  S
C2746      H2750   1.082       .  S
S2747      H2752   1.405       .  S
S2749      H2753   1.406       .  S
C2755      C2756   1.396       .  A
C2755      C2760   1.393       .  A
C2755      H2765   1.084       .  S
C2756      C2761   1.468       .  S
C2756      C2757   1.406       .  A
C2757      C2758   1.396       .  A
C2757      S2762   1.803       .  S
C2758      C2759   1.404       .  A
C2758      H3825   1.076       .  S
C2759      C2760   1.419       .  A
C2760      S2764   1.796       .  S
C2761      C2766   1.406       .  A
C2761      C2770   1.398       .  A
S2762      H2778   1.405       .  S
H2763      C3820   1.077   1_545  S
S2764      H2775   1.384       .  S
C2766      C2767   1.401       .  A
C2766      S2771   1.807       .  S
C2767      C2768   1.407       .  A
C2767      H2772   1.083       .  S
C2768      C2769   1.416       .  A
C2769      C2770   1.394       .  A
C2769      S2773   1.803       .  S
C2770      H2774   1.084       .  S
S2771      H2776   1.407       .  S
S2773      H2777   1.408       .  S
C2779      C2780   1.402       .  A
C2779      C2784   1.399       .  A
C2779      H2789   1.084       .  S
C2780      C2785   1.481       .  S
C2780      C2781   1.410       .  A
C2781      C2782   1.397       .  A
C2781      S2786   1.806       .  S
C2782      C2783   1.410       .  A
C2782      H2787   1.083       .  S
C2783      C2784   1.420       .  A
C2784      S2788   1.802       .  S
C2785      C2790   1.409       .  A
C2785      C2794   1.401       .  A
S2786      H2802   1.407       .  S
S2788      H2799   1.408       .  S
C2790      C2791   1.402       .  A
C2790      S2795   1.806       .  S
C2791      C2792   1.404       .  A
C2791      H2796   1.079       .  S
C2792      C2793   1.411       .  A
C2793      C2794   1.399       .  A
C2793      S3859   1.798       .  S
C2794      H2798   1.083       .  S
S2795      H2800   1.407       .  S
S2797      C3855   1.799   1_545  S
S2797      H2801   1.406       .  S
C2803      C2804   1.398       .  A
C2803      C2808   1.401       .  A
C2803      H2813   1.084       .  S
C2804      C2809   1.474       .  S
C2804      C2805   1.407       .  A
C2805      C2806   1.395       .  A
C2806      C2807   1.408       .  A
C2807      C2808   1.424       .  A
C2808      S2812   1.805       .  S
C2809      C2814   1.407       .  A
C2809      C2818   1.399       .  A
S2812      H2823   1.396       .  S
C2814      C2815   1.403       .  A
C2814      S2819   1.806       .  S
C2815      C2816   1.406       .  A
C2815      H2820   1.083       .  S
C2816      C2817   1.415       .  A
C2817      C2818   1.396       .  A
C2817      S2821   1.804       .  S
C2818      H2822   1.084       .  S
S2819      H2824   1.407       .  S
S2821      H2825   1.407       .  S
C2827      C2828   1.400       .  A
C2827      C2832   1.398       .  A
C2827      H2837   1.084       .  S
C2828      C2833   1.473       .  S
C2828      C2829   1.409       .  A
C2829      C2830   1.395       .  A
C2829      S2834   1.805       .  S
C2830      C2831   1.407       .  A
C2830      H2835   1.084       .  S
C2831      C2832   1.416       .  A
C2832      S2836   1.798       .  S
C2833      C2838   1.406       .  A
C2833      C2842   1.400       .  A
S2834      H2850   1.403       .  S
S2836      H2847   1.395       .  S
C2838      C2839   1.401       .  A
C2838      S2843   1.807       .  S
C2839      C2840   1.406       .  A
C2839      H2844   1.083       .  S
C2840      C2841   1.415       .  A
C2841      C2842   1.399       .  A
C2841      S2845   1.803       .  S
C2842      H2846   1.084       .  S
S2843      H3910   1.407       .  S
S2845      H2849   1.407       .  S
H2848      S3905   1.407   1_545  S
C2851      C2852   1.396       .  A
C2851      C2856   1.400       .  A
C2851      H2861   1.085       .  S
C2852      C2857   1.477       .  S
C2852      C2853   1.406       .  A
C2853      C2854   1.397       .  A
C2853      S2858   1.806       .  S
C2854      C2855   1.410       .  A
C2854      H2859   1.078       .  S
C2855      C2856   1.429       .  A
C2856      S2860   1.804       .  S
C2857      C2862   1.408       .  A
C2857      C2866   1.400       .  A
S2858      H2874   1.403       .  S
S2860      H2871   1.380       .  S
C2862      C2863   1.404       .  A
C2862      S2867   1.806       .  S
C2863      C2864   1.406       .  A
C2863      H2868   1.083       .  S
C2864      C2865   1.416       .  A
C2865      C2866   1.398       .  A
C2865      S2869   1.804       .  S
C2866      H2870   1.084       .  S
S2869      H2873   1.407       .  S
C2875      C2876   1.404       .  A
C2875      C2880   1.401       .  A
C2875      H2885   1.084       .  S
C2876      C2881   1.484       .  S
C2876      C2877   1.416       .  A
C2877      C2878   1.399       .  A
C2877      S2882   1.808       .  S
C2878      C2879   1.403       .  A
C2878      H2883   1.084       .  S
C2879      C2880   1.414       .  A
C2880      S2884   1.804       .  S
C2881      C2886   1.409       .  A
C2881      C2890   1.397       .  A
S2882      H2898   1.404       .  S
S2884      H2895   1.407       .  S
C2886      C2887   1.407       .  A
C2886      S2891   1.805       .  S
C2887      C2888   1.406       .  A
C2887      H2892   1.078       .  S
C2888      C2889   1.420       .  A
C2889      C2890   1.393       .  A
C2889      S2893   1.794       .  S
C2890      H2894   1.084       .  S
S2891      H2896   1.407       .  S
S2893      H2897   1.381       .  S
C2899      C2900   1.398       .  A
C2899      C2904   1.394       .  A
C2899      H2909   1.084       .  S
C2900      C2905   1.508       .  S
C2900      C2901   1.423       .  A
C2901      C2902   1.421       .  A
C2901      S2906   1.803       .  S
C2902      C2903   1.413       .  A
C2902      H2907   1.083       .  S
C2903      C2904   1.419       .  A
C2904      S2908   1.786       .  S
C2905      C2910   1.418       .  A
C2905      C2914   1.402       .  A
S2906      H2922   1.405       .  S
S2908      H2919   1.404       .  S
C2910      C2911   1.420       .  A
C2910      S2915   1.804       .  S
C2911      C2912   1.409       .  A
C2911      H3978   1.082       .  S
C2912      C2913   1.414       .  A
C2913      C2914   1.401       .  A
C2914      H2918   1.083       .  S
S2915      H3982   1.407       .  S
H2916      C3973   1.083   1_545  S
S2917      H2921   1.406       .  S
H2920      S3977   1.407   1_545  S
C2923      C2924   1.401       .  A
C2923      C2928   1.403       .  A
C2923      H2933   1.084       .  S
C2924      C2929   1.506       .  S
C2924      C2925   1.419       .  A
C2925      C2926   1.415       .  A
C2925      S2930   1.799       .  S
C2926      C2927   1.407       .  A
C2926      H2931   1.082       .  S
C2927      C2928   1.417       .  A
C2928      S3994   1.788       .  S
C2929      C2934   1.414       .  A
C2929      C2938   1.397       .  A
S2930      H2946   1.405       .  S
S2932      C3990   1.788   1_545  S
S2932      H2943   1.407       .  S
C2934      C2935   1.420       .  A
C2934      S2939   1.804       .  S
C2935      C2936   1.411       .  A
C2935      H2940   1.078       .  S
C2936      C2937   1.430       .  A
C2937      C2938   1.402       .  A
C2937      S2941   1.803       .  S
C2938      H2942   1.084       .  S
S2939      H2944   1.407       .  S
S2941      H2945   1.380       .  S
C2947      C2948   1.406       .  A
C2947      C2952   1.415       .  A
C2947      H2957   1.082       .  S
C2948      C2953   1.506       .  S
C2948      C2949   1.416       .  A
C2949      C2950   1.406       .  A
C2949      S2954   1.804       .  S
C2950      C2951   1.406       .  A
C2950      H2955   1.079       .  S
C2951      C2952   1.417       .  A
C2952      S2956   1.797       .  S
C2953      C2958   1.416       .  A
C2953      C2962   1.397       .  A
S2954      H2970   1.407       .  S
S2956      H2967   1.406       .  S
C2958      C2959   1.419       .  A
C2958      S2963   1.804       .  S
C2959      C2960   1.410       .  A
C2959      H2964   1.082       .  S
C2960      C2961   1.432       .  A
C2961      C2962   1.400       .  A
C2961      S2965   1.804       .  S
C2962      H2966   1.084       .  S
S2963      H2968   1.407       .  S
S2965      H2969   1.388       .  S
C2971      C2972   1.401       .  A
C2971      C2976   1.401       .  A
C2971      H2981   1.084       .  S
C2972      C2977   1.481       .  S
C2972      C2973   1.411       .  A
C2973      C2974   1.400       .  A
C2973      S2978   1.802       .  S
C2974      C2975   1.405       .  A
C2974      H2979   1.084       .  S
C2975      C2976   1.416       .  A
C2977      C2982   1.409       .  A
C2977      C2986   1.397       .  A
S2978      H2994   1.406       .  S
S2980      H2991   1.407       .  S
C2982      C2983   1.407       .  A
C2982      S2987   1.803       .  S
C2983      C2984   1.406       .  A
C2983      H2988   1.082       .  S
C2984      C2985   1.414       .  A
C2985      C2986   1.396       .  A
C2985      S2989   1.792       .  S
C2986      H2990   1.084       .  S
S2987      H2992   1.407       .  S
S2989      H2993   1.400       .  S
C2995      C2996   1.396       .  A
C2995      C3000   1.393       .  A
C2995      H3005   1.085       .  S
C2996      C3001   1.484       .  S
C2996      C2997   1.413       .  A
C2997      C2998   1.406       .  A
C2997      S3002   1.802       .  S
C2998      C2999   1.406       .  A
C2998      H3003   1.084       .  S
C2999      C3000   1.420       .  A
C3000      S3004   1.792       .  S
C3001      C3006   1.411       .  A
C3001      C3010   1.402       .  A
S3002      H3018   1.405       .  S
S3004      H3015   1.383       .  S
C3006      C3007   1.401       .  A
C3006      S3011   1.809       .  S
C3007      C3008   1.404       .  A
C3007      H3012   1.083       .  S
C3008      C3009   1.417       .  A
C3009      C3010   1.403       .  A
C3009      S3013   1.803   1_655  S
C3010      H3014   1.084       .  S
S3011      H3016   1.406       .  S
S3013      H3017   1.407       .  S
C3019      C3020   1.401       .  A
C3019      C3024   1.399       .  A
C3019      H3029   1.084       .  S
C3020      C3025   1.474       .  S
C3020      C3021   1.410       .  A
C3021      C3022   1.397       .  A
C3021      S3026   1.805       .  S
C3022      C3023   1.405       .  A
C3022      H3027   1.084       .  S
C3023      C3024   1.414       .  A
C3024      S3028   1.799   1_545  S
C3025      C3030   1.404       .  A
C3025      C3034   1.399       .  A
S3026      H3042   1.405       .  S
S3028      H3039   1.407       .  S
C3030      C3031   1.399       .  A
C3030      S3035   1.806       .  S
C3031      C3032   1.407       .  A
C3031      H3036   1.082       .  S
C3032      C3033   1.419       .  A
C3033      C3034   1.402       .  A
C3033      S3037   1.806       .  S
C3034      H3038   1.083       .  S
S3035      H3040   1.407       .  S
S3037      H3041   1.407       .  S
C3043      C3044   1.401       .  A
C3043      C3048   1.399       .  A
C3043      H3053   1.084       .  S
C3044      C3049   1.484       .  S
C3044      C3045   1.415       .  A
C3045      C3046   1.403       .  A
C3045      S3050   1.804       .  S
C3046      C3047   1.402       .  A
C3046      H3051   1.084       .  S
C3047      C3048   1.414       .  A
C3048      S3052   1.805       .  S
C3049      C3054   1.413       .  A
C3049      C3058   1.400       .  A
S3050      H3066   1.406       .  S
S3052      H3063   1.407       .  S
C3054      C3055   1.406       .  A
C3054      S3059   1.807       .  S
C3055      C3056   1.403       .  A
C3055      H3060   1.083       .  S
C3056      C3057   1.417       .  A
C3057      C3058   1.399       .  A
C3057      S3061   1.805       .  S
C3058      H3062   1.084       .  S
S3059      H3064   1.407       .  S
S3061      H3065   1.407       .  S
C3067      C3068   1.403       .  A
C3067      C3072   1.397       .  A
C3067      H3077   1.084       .  S
C3068      C3073   1.467       .  S
C3068      C3069   1.406       .  A
C3069      C3070   1.392       .  A
C3069      S3074   1.804       .  S
C3070      C3071   1.404       .  A
C3070      H3075   1.085       .  S
C3071      C3072   1.411       .  A
C3072      S3076   1.803       .  S
C3073      C3078   1.403       .  A
C3073      C3082   1.402       .  A
S3074      H3090   1.406       .  S
S3076      H3087   1.407       .  S
C3078      C3079   1.397       .  A
C3078      S3083   1.807       .  S
C3079      C3080   1.407       .  A
C3079      H3084   1.083       .  S
C3080      C3081   1.412       .  A
C3081      C3082   1.396       .  A
C3081      S3085   1.803       .  S
C3082      H3086   1.084       .  S
S3083      H3088   1.407       .  S
S3085      H3089   1.407       .  S
C3091      C3092   1.399       .  A
C3091      C3096   1.399       .  A
C3091      H3101   1.082       .  S
C3092      C3097   1.471       .  S
C3092      C3093   1.412       .  A
C3093      C3094   1.396       .  A
C3093      S3098   1.805       .  S
C3094      C3095   1.402       .  A
C3094      H3099   1.083       .  S
C3095      C3096   1.415       .  A
C3096      S3100   1.810       .  S
C3097      C3102   1.411       .  A
C3097      C3106   1.398       .  A
S3098      H3114   1.405       .  S
S3100      H3111   1.407       .  S
C3102      C3103   1.402       .  A
C3102      S3107   1.807       .  S
C3103      C3104   1.402       .  A
C3103      H3108   1.083       .  S
C3104      C3105   1.413       .  A
C3105      C3106   1.393       .  A
C3105      S4171   1.805       .  S
C3106      H3110   1.084       .  S
S3107      H3112   1.407       .  S
S3109      C4167   1.805   1_545  S
S3109      H3113   1.407       .  S
C3115      C3116   1.399       .  A
C3115      C4182   1.397       .  A
C3115      H3125   1.084   1_565  S
C3116      C3121   1.471   1_565  S
C3116      C4179   1.408       .  A
C3117      C4178   1.409       .  A
C3117      C3118   1.397       .  A
C3117      S3122   1.805       .  S
C3118      C3119   1.405       .  A
C3118      H3123   1.084       .  S
C3119      C3120   1.418       .  A
C3120      C4177   1.398       .  A
C3120      S3124   1.804       .  S
C3121      C3126   1.404       .  A
C3121      C3130   1.399       .  A
S3122      H4200   1.407       .  S
S3124      H3135   1.407       .  S
C3126      C3127   1.399       .  A
C3126      S3131   1.805       .  S
C3127      C3128   1.406       .  A
C3127      H3132   1.079       .  S
C3128      C3129   1.413       .  A
C3129      C3130   1.398       .  A
C3129      S3133   1.803       .  S
C3130      H3134   1.083       .  S
S3131      H3136   1.407       .  S
S3133      H3137   1.406       .  S
H3138      S4184   1.407       .  S
C3139      C3140   1.403   1_655  A
C3139      H3149   1.084       .  S
C3140      C3145   1.480   1_455  S
C3141      C3142   1.396       .  A
C3141      S3146   1.801       .  S
C3142      C3143   1.401       .  A
C3142      H3147   1.084       .  S
C3143      C3144   1.414       .  A
C3144      S3148   1.804       .  S
C3145      C3150   1.408       .  A
C3145      C3154   1.401       .  A
S3146      H3162   1.406       .  S
S3148      H3159   1.406       .  S
C3150      C3151   1.400       .  A
C3150      S3155   1.807       .  S
C3151      C3152   1.402       .  A
C3151      H3156   1.081       .  S
C3152      C3153   1.417       .  A
C3153      C3154   1.402       .  A
C3153      S3157   1.806       .  S
C3154      H3158   1.084       .  S
S3155      H3160   1.407       .  S
S3157      H3161   1.397       .  S
C3163      C3164   1.401       .  A
C3163      C3168   1.399       .  A
C3163      H3173   1.084       .  S
C3164      C3169   1.478       .  S
C3164      C3165   1.412       .  A
C3165      C3166   1.399       .  A
C3165      S3170   1.804       .  S
C3166      C3167   1.405       .  A
C3166      H3171   1.084       .  S
C3167      C3168   1.416       .  A
C3168      S3172   1.804       .  S
C3169      C3174   1.405       .  A
C3169      C3178   1.398       .  A
S3170      H3186   1.406       .  S
S3172      H3183   1.407       .  S
C3174      C3175   1.401       .  A
C3174      S3179   1.806       .  S
C3175      C3176   1.405       .  A
C3175      H3180   1.080       .  S
C3176      C3177   1.419       .  A
C3177      C3178   1.401       .  A
C3177      S3181   1.801       .  S
C3178      H3182   1.084       .  S
S3179      H3184   1.407       .  S
S3181      H3185   1.406       .  S
Zn3187     O3191   1.952       .  S
Zn3187     O3192   2.013       .  S
Zn3187     O3196   1.998       .  S
Zn3187     O3203   2.033       .  S
Zn3188     O3191   1.953       .  S
Zn3188     O3193   2.016       .  S
Zn3188     O3195   2.014       .  S
Zn3188     O3199   2.024       .  S
Zn3189     O3191   1.955       .  S
Zn3189     O3194   2.021       .  S
Zn3189     O3197   2.016       .  S
Zn3189     O3200   2.060       .  S
Zn3190     O3191   1.915       .  S
Zn3190     O3198   1.969       .  S
Zn3190     O3201   1.964       .  S
Zn3190     O3202   1.976       .  S
O3192      C3204   1.273       .  A
O3193      C3205   1.274       .  A
O3194      C3206   1.276       .  A
O3195      C3204   1.274       .  A
O3196      C3206   1.272       .  A
O3197      C3205   1.275       .  A
O3198      C3207   1.267       .  A
O3199      C3208   1.274       .  A
O3200      C3207   1.277       .  A
O3201      C3208   1.267       .  A
O3202      C3209   1.268       .  A
O3203      C3209   1.275       .  A
C3204      C4229   1.480       .  S
C3205      C4205   1.473       .  S
C3206      C4181   1.478       .  S
C3207      C4109   1.472       .  S
C3208      C4142   1.471       .  S
C3209      C4157   1.474       .  S
Zn3210     O3214   1.918       .  S
Zn3210     O3215   1.955   1_545  S
Zn3211     O3214   1.962   1_565  S
Zn3211     O3218   2.048       .  S
Zn3211     O3222   2.032       .  S
Zn3212     O3217   2.028       .  S
Zn3212     O3223   2.000       .  S
Zn3213     O3225   2.054       .  S
O3215      C3227   1.266       .  A
O3216      C3228   1.275       .  A
O3217      C3229   1.273       .  A
O3218      C3227   1.276       .  A
O3219      C3229   1.267       .  A
O3220      C3228   1.274       .  A
O3221      C3230   1.275       .  A
O3222      C3231   1.277       .  A
O3223      C3230   1.273       .  A
O3224      C3231   1.275       .  A
O3225      C3232   1.276       .  A
O3226      C3232   1.267       .  A
C3227      C4166   1.467       .  S
C3228      C4070   1.479       .  S
C3229      C4133   1.468       .  S
C3230      C4085   1.477       .  S
C3231      C4037   1.482       .  S
C3232      C4118   1.477       .  S
C3233      H3234   1.110       .  S
C3233      C3239   1.575       .  S
C3233      C3238   1.581       .  S
C3233      C3237   1.573       .  S
C3235      H3236   1.110       .  S
C3235      C3241   1.524       .  S
C3235      C3240   1.546       .  S
C3235      C3242   1.528       .  S
C3237      C3240   1.387       .  D
C3237      C3965   1.527       .  S
C3238      C3241   1.383       .  D
C3238      C3998   1.527       .  S
C3239      C3242   1.370       .  D
C3239      C4013   1.511       .  S
C3240      C3917   1.507       .  S
C3241      C3893   1.493       .  S
C3242      C3950   1.500       .  S
C3243      H3244   1.111       .  S
C3243      C3249   1.541       .  S
C3245      H3246   1.110       .  S
C3245      C3252   1.562   1_545  S
C3247      C3250   1.383       .  D
C3247      C3869   1.500       .  S
C3248      C3251   1.375       .  D
C3248      C3854   1.491       .  S
C3249      C3252   1.375       .  D
C3249      C3821   1.491       .  S
C3250      C4022   1.521       .  S
C3251      C3974   1.512       .  S
C3252      C3989   1.515       .  S
C3253      H3254   1.108       .  S
C3253      C3259   1.565       .  S
C3253      C3258   1.567       .  S
C3253      C3257   1.576       .  S
C3255      H3256   1.111       .  S
C3255      C3261   1.532       .  S
C3255      C3260   1.521       .  S
C3255      C3262   1.525       .  S
C3257      C3260   1.378       .  D
C3257      C3797   1.513       .  S
C3258      C3261   1.387       .  D
C3258      C3758   1.516       .  S
C3259      C3262   1.370       .  D
C3259      C3773   1.511       .  S
C3260      C3725   1.493       .  S
C3261      C3686   1.500       .  S
C3262      C3701   1.482       .  S
C3263      H3264   1.109       .  S
C3263      C3269   1.574       .  S
C3263      C3268   1.562       .  S
C3263      C3267   1.562       .  S
C3265      H3266   1.111       .  S
C3265      C3271   1.529       .  S
C3265      C3270   1.538       .  S
C3265      C3272   1.522       .  S
C3267      C3270   1.382       .  D
C3267      C3806   1.509       .  S
C3268      C3271   1.376       .  D
C3268      C3782   1.517       .  S
C3269      C3272   1.375       .  D
C3269      C3749   1.508       .  S
C3270      C4238   1.501       .  S
C3271      C4214   1.484       .  S
C3272      C4190   1.491       .  S
Zn3273     O3277   1.953       .  S
Zn3273     O3278   1.995       .  S
Zn3273     O3282   2.020       .  S
Zn3273     O3289   2.035       .  S
Zn3274     O3277   1.967       .  S
Zn3274     O3279   2.015       .  S
Zn3274     O3281   2.020       .  S
Zn3274     O3285   2.058       .  S
Zn3275     O3277   1.955       .  S
Zn3275     O3280   2.014       .  S
Zn3275     O3283   2.013       .  S
Zn3275     O3286   2.031       .  S
Zn3276     O3277   1.908       .  S
Zn3276     O3284   1.951       .  S
Zn3276     O3287   1.944       .  S
Zn3276     O3288   1.959       .  S
O3278      C3290   1.272       .  A
O3279      C3291   1.274       .  A
O3280      C3292   1.274       .  A
O3281      C3290   1.276       .  A
O3282      C3292   1.275       .  A
O3283      C3291   1.274       .  A
O3284      C3293   1.266       .  A
O3285      C3294   1.276       .  A
O3286      C3293   1.273       .  A
O3287      C3294   1.264       .  A
O3288      C3295   1.265       .  A
O3289      C3295   1.273       .  A
C3290      C3677   1.474       .  S
C3291      C3710   1.467       .  S
C3292      C3734   1.482       .  S
C3293      C3638   1.463       .  S
C3294      C3605   1.472       .  S
C3295      C3653   1.464       .  S
Zn3296     O3300   1.910       .  S
Zn3296     O3312   1.957       .  S
Zn3297     O3304   2.048       .  S
Zn3298     O3303   2.047       .  S
Zn3298     O3306   2.026       .  S
Zn3299     O3300   1.960       .  S
Zn3299     O3310   2.027       .  S
Zn3299     O3311   2.039       .  S
O3301      C3313   1.264       .  A
O3302      C3314   1.275       .  A
O3303      C3315   1.275       .  A
O3304      C3313   1.274       .  A
O3305      C3315   1.266       .  A
O3306      C3314   1.276       .  A
O3307      C3316   1.274       .  A
O3308      C3317   1.275       .  A
O3309      C3316   1.275       .  A
O3310      C3317   1.276       .  A
O3311      C3318   1.274       .  A
O3312      C3318   1.265       .  A
C3313      C3614   1.465       .  S
C3314      C3902   1.476       .  S
C3315      C3629   1.480       .  S
C3316      C3926   1.476       .  S
C3317      C3941   1.478       .  S
C3318      C3662   1.470       .  S
C3319      H3320   1.108       .  S
C3319      C3325   1.573       .  S
C3319      C3324   1.567       .  S
C3319      C3323   1.565       .  S
C3321      H3322   1.112       .  S
C3321      C3327   1.530       .  S
C3321      C3326   1.540       .  S
C3321      C3328   1.527       .  S
C3323      C3326   1.382       .  D
C3323      C3581   1.521       .  S
C3324      C3327   1.376       .  D
C3324      C3533   1.502       .  S
C3325      C3328   1.378       .  D
C3325      C3557   1.521       .  S
C3326      C4094   1.492       .  S
C3327      C4061   1.499       .  S
C3328      C4046   1.493       .  S
C3329      H3330   1.112       .  S
C3329      C3333   1.532       .  S
C3331      H3332   1.103       .  S
C3331      C3336   1.572       .  S
C3333      C3336   1.392       .  D
C3333      C3494   1.488       .  S
C3334      C3337   1.374       .  D
C3334      C3470   1.490       .  S
C3335      C3338   1.374       .  D
C3335      C3518   1.498       .  S
C3336      C3542   1.539       .  S
C3337      C3566   1.518       .  S
C3338      C3590   1.511       .  S
Zn3339     O3343   1.952       .  S
Zn3339     O3344   2.020       .  S
Zn3339     O3348   2.003       .  S
Zn3339     O3355   1.997       .  S
Zn3340     O3343   1.945       .  S
Zn3340     O3345   2.011       .  S
Zn3340     O3347   2.007       .  S
Zn3340     O3351   2.002       .  S
Zn3341     O3343   1.955       .  S
Zn3341     O3346   2.006       .  S
Zn3341     O3349   2.004       .  S
Zn3341     O3352   2.018       .  S
Zn3342     O3343   1.951       .  S
Zn3342     O3350   1.993       .  S
Zn3342     O3353   2.011       .  S
Zn3342     O3354   2.001       .  S
O3344      C3356   1.273       .  A
O3345      C3357   1.274       .  A
O3346      C3358   1.271       .  A
O3347      C3356   1.273       .  A
O3348      C3358   1.272       .  A
O3349      C3357   1.273       .  A
O3350      C3359   1.270       .  A
O3351      C3360   1.272       .  A
O3352      C3359   1.273       .  A
O3353      C3360   1.273       .  A
O3354      C3361   1.271       .  A
O3355      C3361   1.271       .  A
C3356      C3845   1.493       .  S
C3357      C3830   1.476       .  S
C3358      C3413   1.470       .  S
C3359      C3398   1.480       .  S
C3360      C3878   1.473       .  S
C3361      C3437   1.473       .  S
Zn3362     O3366   1.955       .  S
Zn3362     O3367   2.015       .  S
Zn3362     O3371   1.993       .  S
Zn3362     O3378   2.011       .  S
Zn3363     O3366   1.935       .  S
Zn3363     O3368   1.997       .  S
Zn3363     O3370   1.991       .  S
Zn3363     O3374   2.004       .  S
Zn3364     O3366   1.958       .  S
Zn3364     O3369   2.020       .  S
Zn3364     O3372   2.033       .  S
Zn3364     O3375   2.014       .  S
Zn3365     O3366   1.946       .  S
Zn3365     O3373   2.004       .  S
Zn3365     O3376   2.011       .  S
Zn3365     O3377   1.992       .  S
O3367      C3379   1.274       .  A
O3368      C3380   1.272       .  A
O3369      C3381   1.274       .  A
O3370      C3379   1.270       .  A
O3371      C3381   1.270       .  A
O3372      C3380   1.275       .  A
O3373      C3382   1.272       .  A
O3374      C3383   1.273       .  A
O3375      C3382   1.274       .  A
O3376      C3383   1.271       .  A
O3377      C3384   1.269       .  A
O3378      C3384   1.273       .  A
C3379      C3461   1.474       .  S
C3380      C3509   1.485       .  S
C3381      C3389   1.477       .  S
C3382      C3422   1.484       .  S
C3383      C3485   1.487       .  S
C3384      C3446   1.480       .  S
C3385      C3386   1.399       .  A
C3385      C3390   1.397   1_556  A
C3385      H3395   1.084       .  S
C3386      C3391   1.475       .  S
C3386      C3387   1.412   1_556  A
C3387      C3388   1.399       .  A
C3387      S3392   1.804       .  S
C3388      C3389   1.403       .  A
C3388      H3393   1.084       .  S
C3389      C3390   1.418       .  A
C3390      S3394   1.805       .  S
C3391      C3396   1.407       .  A
C3391      C3400   1.400       .  A
S3392      H3408   1.405   1_554  S
S3394      H3405   1.408       .  S
C3396      C3397   1.402       .  A
C3396      S3401   1.807       .  S
C3397      C3398   1.407       .  A
C3397      H3402   1.083       .  S
C3398      C3399   1.416       .  A
C3399      C3400   1.401       .  A
C3399      S3403   1.809       .  S
C3400      H3404   1.083       .  S
S3401      H3406   1.407       .  S
S3403      H3407   1.407       .  S
C3409      C3410   1.399       .  A
C3409      C3414   1.395       .  A
C3409      H3419   1.084       .  S
C3410      C3411   1.412       .  A
C3411      C3412   1.399       .  A
C3412      C3413   1.402       .  A
C3412      H3417   1.084       .  S
C3413      C3414   1.415       .  A
C3414      S3418   1.806       .  S
C3415      C3420   1.406       .  A
C3415      C3424   1.400   1_556  A
S3416      H3432   1.405       .  S
S3418      H3429   1.407       .  S
C3420      C3421   1.401   1_556  A
C3420      S3425   1.806       .  S
C3421      C3422   1.408       .  A
C3421      H3426   1.082       .  S
C3422      C3423   1.417       .  A
C3423      C3424   1.399       .  A
C3423      S3427   1.803       .  S
C3424      H3428   1.084       .  S
S3425      H3430   1.407       .  S
S3427      H3431   1.408       .  S
C3433      C3434   1.401       .  A
C3433      C3438   1.397       .  A
C3434      C3435   1.409       .  A
C3435      C3436   1.396       .  A
C3435      S3440   1.805       .  S
C3436      C3437   1.406       .  A
C3436      H3441   1.084       .  S
C3437      C3438   1.413       .  A
C3438      S3442   1.804       .  S
C3439      C3444   1.406   1_556  A
C3439      C3448   1.396       .  A
S3440      H3456   1.405   1_556  S
S3442      H3453   1.407       .  S
C3444      C3445   1.401       .  A
C3445      C3446   1.407       .  A
C3445      H3450   1.082       .  S
C3446      C3447   1.420       .  A
C3447      C3448   1.394   1_554  A
C3447      S3451   1.804       .  S
C3448      H3452   1.084       .  S
S3449      H3454   1.407       .  S
S3451      H3455   1.408       .  S
C3457      C3458   1.398       .  A
C3457      C3462   1.395       .  A
C3457      H3467   1.085       .  S
C3458      C3463   1.468       .  S
C3458      C3459   1.410       .  A
C3459      C3460   1.397       .  A
C3459      S3464   1.805       .  S
C3460      C3461   1.404       .  A
C3460      H3465   1.084       .  S
C3461      C3462   1.417       .  A
C3462      S3466   1.804       .  S
C3463      C3468   1.404       .  A
C3463      C3472   1.397       .  A
S3464      H3480   1.404       .  S
S3466      H3477   1.407       .  S
C3468      C3469   1.396       .  A
C3468      S3473   1.807       .  S
C3469      C3470   1.404       .  A
C3469      H3474   1.074       .  S
C3470      C3471   1.421       .  A
C3471      C3472   1.397       .  A
C3472      H3476   1.083       .  S
S3473      H3478   1.407       .  S
S3475      H3479   1.399       .  S
C3481      C3482   1.403       .  A
C3481      C3486   1.399       .  A
C3481      H3491   1.084       .  S
C3482      C3487   1.482       .  S
C3482      C3483   1.415       .  A
C3483      C3484   1.396       .  A
C3483      S3488   1.808       .  S
C3484      C3485   1.407       .  A
C3484      H3489   1.084       .  S
C3485      C3486   1.418       .  A
C3486      S3490   1.802       .  S
C3487      C3492   1.412       .  A
C3487      C3496   1.402       .  A
S3488      H3504   1.396       .  S
S3490      H3501   1.407       .  S
C3492      C3493   1.400       .  A
C3492      S3497   1.808       .  S
C3493      C3494   1.402       .  A
C3493      H3498   1.078       .  S
C3494      C3495   1.410       .  A
C3495      C3496   1.401       .  A
C3496      H3500   1.082       .  S
S3497      H3502   1.407       .  S
S3499      H3503   1.407       .  S
C3505      C3506   1.402       .  A
C3505      C3510   1.401       .  A
C3505      H3515   1.084       .  S
C3506      C3511   1.476       .  S
C3506      C3507   1.410       .  A
C3507      C3508   1.397       .  A
C3507      S3512   1.807       .  S
C3508      C3509   1.407       .  A
C3508      H3513   1.084       .  S
C3509      C3510   1.417       .  A
C3510      S3514   1.802       .  S
C3511      C3516   1.405       .  A
C3511      C3520   1.398       .  A
S3512      H3528   1.403       .  S
S3514      H3525   1.407       .  S
C3516      C3517   1.402       .  A
C3516      S3521   1.805       .  S
C3517      C3518   1.406       .  A
C3517      H3522   1.076       .  S
C3518      C3519   1.415       .  A
C3519      C3520   1.401       .  A
C3520      H3524   1.083       .  S
S3521      H3526   1.407       .  S
S3523      H3527   1.407       .  S
C3529      C3530   1.409       .  A
C3529      C3534   1.409       .  A
C3529      H3539   1.084       .  S
C3530      C3535   1.515       .  S
C3530      C3531   1.421       .  A
C3531      C3532   1.408       .  A
C3531      S3536   1.806       .  S
C3532      C3533   1.403       .  A
C3532      H3537   1.084       .  S
C3533      C3534   1.420       .  A
C3534      S3538   1.808       .  S
C3535      C3540   1.412       .  A
C3535      C3544   1.411       .  A
S3536      H3552   1.406       .  S
S3538      H3549   1.400       .  S
C3540      C3541   1.405       .  A
C3540      S3545   1.810       .  S
C3541      C3542   1.411       .  A
C3541      H3546   1.072       .  S
C3542      C3543   1.425       .  A
C3543      C3544   1.419       .  A
C3543      S3547   1.803       .  S
C3544      H3548   1.082       .  S
S3545      H3550   1.405       .  S
C3553      C3554   1.410       .  A
C3553      C3558   1.415       .  A
C3553      H3563   1.084       .  S
C3554      C3559   1.512       .  S
C3554      C3555   1.417       .  A
C3555      C3556   1.409       .  A
C3555      S3560   1.804       .  S
C3556      C3557   1.411       .  A
C3556      H3561   1.084       .  S
C3557      C3558   1.416       .  A
C3558      S3562   1.792       .  S
C3559      C3564   1.418       .  A
C3559      C3568   1.403       .  A
S3560      H3576   1.405       .  S
S3562      H3573   1.405       .  S
C3564      C3565   1.419       .  A
C3564      S3569   1.802       .  S
C3565      C3566   1.407       .  A
C3566      C3567   1.422       .  A
C3567      C3568   1.407       .  A
C3567      S3571   1.802       .  S
C3568      H3572   1.084       .  S
S3571      H3575   1.401       .  S
C3577      C3578   1.397       .  A
C3577      C3582   1.401       .  A
C3577      H3587   1.083       .  S
C3578      C3583   1.509       .  S
C3578      C3579   1.422       .  A
C3579      C3580   1.416       .  A
C3579      S3584   1.801       .  S
C3580      C3581   1.409       .  A
C3580      H3585   1.084       .  S
C3581      C3582   1.422       .  A
C3582      S3586   1.794       .  S
C3583      C3588   1.416       .  A
C3583      C3592   1.404       .  A
S3584      H3600   1.403       .  S
S3586      H3597   1.407       .  S
C3588      C3589   1.409       .  A
C3588      S3593   1.808       .  S
C3589      C3590   1.408       .  A
C3589      H3594   1.081       .  S
C3590      C3591   1.425       .  A
C3591      C3592   1.410       .  A
C3591      S3595   1.801       .  S
C3592      H3596   1.083       .  S
S3593      H3598   1.407       .  S
S3595      H3599   1.393       .  S
C3601      C3602   1.405       .  A
C3601      C3606   1.400       .  A
C3601      H3611   1.084       .  S
C3602      C3607   1.473       .  S
C3602      C3603   1.407       .  A
C3603      C3604   1.394       .  A
C3603      S3608   1.805       .  S
C3604      C3605   1.407       .  A
C3604      H3609   1.085       .  S
C3605      C3606   1.411       .  A
C3606      S3610   1.801       .  S
C3607      C3612   1.410       .  A
C3607      C3616   1.398       .  A
S3608      H3624   1.405       .  S
S3610      H3621   1.407       .  S
C3612      C3613   1.403       .  A
C3612      S3617   1.806       .  S
C3613      C3614   1.401       .  A
C3613      H3618   1.083       .  S
C3614      C3615   1.414       .  A
C3615      C3616   1.395       .  A
C3616      H3620   1.084       .  S
S3617      H3622   1.407       .  S
S3619      H3623   1.407       .  S
C3625      C3626   1.405       .  A
C3625      C3630   1.400       .  A
C3625      H3635   1.084       .  S
C3626      C3631   1.474       .  S
C3626      C3627   1.407       .  A
C3627      C3628   1.391       .  A
C3627      S3632   1.806       .  S
C3628      C3629   1.409       .  A
C3628      H3633   1.084       .  S
C3629      C3630   1.413       .  A
C3630      S3634   1.801       .  S
C3631      C3636   1.407       .  A
C3631      C3640   1.405       .  A
S3632      H3648   1.406       .  S
S3634      H3645   1.406       .  S
C3636      C3637   1.394       .  A
C3636      S3641   1.809       .  S
C3637      C3638   1.403       .  A
C3637      H3642   1.083       .  S
C3638      C3639   1.409       .  A
C3639      C3640   1.399       .  A
C3639      S3643   1.803       .  S
C3640      H3644   1.084       .  S
S3641      H3646   1.407       .  S
S3643      H3647   1.406       .  S
C3649      C3650   1.399       .  A
C3649      C3654   1.395       .  A
C3649      H3659   1.084       .  S
C3650      C3655   1.471       .  S
C3650      C3651   1.413       .  A
C3651      C3652   1.398       .  A
C3651      S3656   1.805       .  S
C3652      C3653   1.400       .  A
C3652      H3657   1.084       .  S
C3653      C3654   1.413       .  A
C3654      S3658   1.806       .  S
C3655      C3660   1.405       .  A
C3655      C3664   1.402       .  A
S3656      H3672   1.405       .  S
S3658      H3669   1.407       .  S
C3660      C3661   1.398       .  A
C3660      S3665   1.808       .  S
C3661      C3662   1.406       .  A
C3661      H3666   1.083       .  S
C3662      C3663   1.412       .  A
C3663      C3664   1.399       .  A
C3663      S3667   1.802       .  S
C3664      H3668   1.084       .  S
S3667      H3671   1.407       .  S
C3673      C3678   1.395       .  A
C3673      H3683   1.085       .  S
C3674      C3679   1.470       .  S
C3674      C3675   1.409       .  A
C3675      S3680   1.805       .  S
C3676      C3677   1.405       .  A
C3676      H3681   1.084       .  S
C3677      C3678   1.416       .  A
C3678      S3682   1.804       .  S
C3679      C3684   1.401       .  A
C3679      C3688   1.395       .  A
S3680      H3696   1.405       .  S
S3682      H3693   1.408       .  S
C3684      C3685   1.398       .  A
C3684      S3689   1.806       .  S
C3685      C3686   1.409       .  A
C3685      H3690   1.078       .  S
C3686      C3687   1.424       .  A
C3687      C3688   1.396       .  A
C3687      S3691   1.801       .  S
C3688      H3692   1.085       .  S
S3689      H3694   1.407       .  S
S3691      H3695   1.384       .  S
C3697      C3698   1.399       .  A
C3697      C3702   1.396       .  A
C3697      H3707   1.084       .  S
C3698      C3703   1.476       .  S
C3698      C3699   1.410       .  A
C3699      C3700   1.397       .  A
C3699      S3704   1.803       .  S
C3700      C3701   1.402       .  A
C3700      H3705   1.081       .  S
C3701      C3702   1.419       .  A
C3702      S3706   1.806       .  S
S3704      H3720   1.406       .  S
S3706      H3717   1.394       .  S
C3708      C3709   1.401   1_455  A
C3709      C3710   1.401       .  A
C3709      H3714   1.083       .  S
C3710      C3711   1.412       .  A
C3711      C3712   1.398       .  A
C3711      S3715   1.804       .  S
C3712      H3716   1.084       .  S
S3715      H3719   1.406       .  S
C3721      C3722   1.401       .  A
C3721      C3726   1.398       .  A
C3721      H3731   1.084       .  S
C3722      C3727   1.478       .  S
C3722      C3723   1.410       .  A
C3723      C3724   1.398       .  A
C3723      S3728   1.804       .  S
C3724      C3725   1.407       .  A
C3724      H3729   1.084       .  S
C3725      C3726   1.416       .  A
C3726      S3730   1.799       .  S
C3727      C3732   1.408       .  A
C3727      C3736   1.400       .  A
S3728      H3744   1.405       .  S
S3730      H3741   1.397       .  S
C3732      C3733   1.403       .  A
C3732      S3737   1.807       .  S
C3733      C3734   1.406       .  A
C3733      H3738   1.083       .  S
C3734      C3735   1.417       .  A
C3735      C3736   1.399       .  A
C3735      S3739   1.804       .  S
C3736      H3740   1.084       .  S
S3737      H3742   1.407       .  S
S3739      H3743   1.408       .  S
C3745      C3746   1.401       .  A
C3745      C3750   1.406       .  A
C3745      H3755   1.084       .  S
C3746      C3747   1.414       .  A
C3747      C3748   1.406       .  A
C3747      S3752   1.801       .  S
C3748      C3749   1.405       .  A
C3748      H3753   1.078       .  S
C3749      C3750   1.418       .  A
C3750      S3754   1.798       .  S
C3751      C3756   1.409       .  A
C3751      C3760   1.408       .  A
S3752      H3768   1.405       .  S
S3754      H3765   1.406       .  S
C3756      C3757   1.404       .  A
C3756      S3761   1.807   1_565  S
C3757      C3758   1.410       .  A
C3757      H3762   1.079       .  S
C3758      C3759   1.418       .  A
C3759      C3760   1.415       .  A
C3759      S3763   1.805       .  S
C3760      H3764   1.082       .  S
S3761      H3766   1.408   1_545  S
S3763      H3767   1.407       .  S
C3769      C3770   1.408       .  A
C3769      C3774   1.413       .  A
C3769      H3779   1.082       .  S
C3770      C3771   1.416       .  A
C3771      C3772   1.407       .  A
C3771      S3776   1.805       .  S
C3772      C3773   1.406       .  A
C3772      H3777   1.078       .  S
C3773      C3774   1.414       .  A
C3774      S3778   1.798       .  S
C3775      C3780   1.415       .  A
C3775      C3784   1.409       .  A
S3778      H3789   1.406       .  S
C3780      C3781   1.407       .  A
C3781      C3782   1.408       .  A
C3781      H3786   1.081       .  S
C3782      C3783   1.413       .  A
C3783      C3784   1.415       .  A
C3783      S3787   1.796       .  S
C3784      H3788   1.083       .  S
S3787      H3791   1.406       .  S
C3793      C3794   1.395       .  A
C3793      C3798   1.403       .  A
C3793      H3803   1.083       .  S
C3794      C3799   1.494       .  S
C3794      C3795   1.415       .  A
C3795      C3796   1.410       .  A
C3795      S3800   1.801       .  S
C3796      C3797   1.405       .  A
C3796      H3801   1.079       .  S
C3797      C3798   1.423       .  A
C3798      S3802   1.799       .  S
C3799      C3804   1.411       .  A
C3799      C3808   1.406       .  A
S3800      H3816   1.406       .  S
S3802      H3813   1.407       .  S
C3804      C3805   1.402       .  A
C3804      S3809   1.804       .  S
C3805      C3806   1.409       .  A
C3805      H3810   1.083       .  S
C3806      C3807   1.415       .  A
C3807      C3808   1.413       .  A
C3807      S3811   1.803       .  S
C3808      H3812   1.082       .  S
S3809      H3814   1.406       .  S
S3811      H3815   1.406       .  S
C3817      C3818   1.396       .  A
C3817      C3822   1.393       .  A
C3817      H3827   1.085       .  S
C3818      C3823   1.469       .  S
C3818      C3819   1.407       .  A
C3819      C3820   1.397       .  A
C3819      S3824   1.804   1_565  S
C3820      C3821   1.404       .  A
C3821      C3822   1.419       .  A
C3822      S3826   1.795       .  S
C3823      C3828   1.406       .  A
C3823      C3832   1.398       .  A
S3824      H3840   1.404       .  S
S3826      H3837   1.382       .  S
C3828      C3829   1.402       .  A
C3828      S3833   1.807       .  S
C3829      C3830   1.407       .  A
C3829      H3834   1.083       .  S
C3830      C3831   1.415       .  A
C3831      C3832   1.394       .  A
C3831      S3835   1.804       .  S
C3832      H3836   1.084       .  S
S3833      H3838   1.407       .  S
S3835      H3839   1.408       .  S
C3841      C3842   1.402       .  A
C3841      C3846   1.399       .  A
C3841      H3851   1.084       .  S
C3842      C3847   1.481       .  S
C3842      C3843   1.410       .  A
C3843      C3844   1.398       .  A
C3843      S3848   1.806       .  S
C3844      C3845   1.410       .  A
C3844      H3849   1.083       .  S
C3845      C3846   1.420       .  A
C3846      S3850   1.802       .  S
C3847      C3852   1.409       .  A
C3847      C3856   1.401       .  A
S3848      H3864   1.406       .  S
S3850      H3861   1.408       .  S
C3852      C3853   1.402       .  A
C3852      S3857   1.806       .  S
C3853      C3854   1.403       .  A
C3853      H3858   1.079       .  S
C3854      C3855   1.412       .  A
C3855      C3856   1.400       .  A
C3856      H3860   1.083       .  S
S3857      H3862   1.407       .  S
S3859      H3863   1.406       .  S
C3865      C3866   1.398       .  A
C3865      C3870   1.400       .  A
C3865      H3875   1.084       .  S
C3866      C3871   1.471       .  S
C3866      C3867   1.406       .  A
C3867      C3868   1.393       .  A
C3868      C3869   1.408       .  A
C3869      C3870   1.424       .  A
C3870      S3874   1.806       .  S
C3871      C3876   1.407       .  A
C3871      C3880   1.399       .  A
S3874      H3885   1.396       .  S
C3876      C3877   1.403       .  A
C3876      S3881   1.805       .  S
C3877      C3878   1.405       .  A
C3877      H3882   1.083       .  S
C3878      C3879   1.415       .  A
C3879      C3880   1.395       .  A
C3879      S3883   1.804       .  S
C3880      H3884   1.084       .  S
S3881      H3886   1.407       .  S
S3883      H3887   1.407       .  S
C3889      C3890   1.400       .  A
C3889      C3894   1.398       .  A
C3889      H3899   1.084       .  S
C3890      C3895   1.474       .  S
C3890      C3891   1.409       .  A
C3891      C3892   1.396       .  A
C3891      S3896   1.804       .  S
C3892      C3893   1.407       .  A
C3892      H3897   1.084       .  S
C3893      C3894   1.416       .  A
C3894      S3898   1.799       .  S
C3895      C3900   1.407       .  A
C3895      C3904   1.400       .  A
S3896      H3912   1.404       .  S
S3898      H3909   1.395       .  S
C3900      C3901   1.401       .  A
C3900      S3905   1.807       .  S
C3901      C3902   1.405       .  A
C3901      H3906   1.083       .  S
C3902      C3903   1.415       .  A
C3903      C3904   1.399       .  A
C3903      S3907   1.803       .  S
C3904      H3908   1.084       .  S
S3907      H3911   1.407       .  S
C3913      C3914   1.396       .  A
C3913      C3918   1.399       .  A
C3913      H3923   1.085       .  S
C3914      C3919   1.474       .  S
C3914      C3915   1.405       .  A
C3915      C3916   1.396       .  A
C3915      S3920   1.806       .  S
C3916      C3917   1.409       .  A
C3916      H3921   1.078       .  S
C3917      C3918   1.429       .  A
C3918      S3922   1.805       .  S
C3919      C3924   1.408       .  A
C3919      C3928   1.399       .  A
S3920      H3936   1.403       .  S
S3922      H3933   1.382       .  S
C3924      C3925   1.403       .  A
C3924      S3929   1.806       .  S
C3925      C3926   1.405       .  A
C3925      H3930   1.083       .  S
C3926      C3927   1.415       .  A
C3927      C3928   1.398       .  A
C3927      S3931   1.804       .  S
C3928      H3932   1.084       .  S
S3931      H3935   1.407       .  S
C3937      C3938   1.405       .  A
C3937      C3942   1.401       .  A
C3937      H3947   1.084       .  S
C3938      C3943   1.485       .  S
C3938      C3939   1.415       .  A
C3939      C3940   1.399       .  A
C3939      S3944   1.807       .  S
C3940      C3941   1.403       .  A
C3940      H3945   1.084       .  S
C3941      C3942   1.414       .  A
C3942      S3946   1.804       .  S
C3943      C3948   1.409       .  A
C3943      C3952   1.397       .  A
S3944      H3960   1.404       .  S
S3946      H3957   1.407       .  S
C3948      C3949   1.407       .  A
C3948      S3953   1.805       .  S
C3949      C3950   1.406       .  A
C3949      H3954   1.078       .  S
C3950      C3951   1.420       .  A
C3951      C3952   1.394       .  A
C3951      S3955   1.794       .  S
C3952      H3956   1.084       .  S
S3953      H3958   1.407       .  S
S3955      H3959   1.381       .  S
C3961      C3962   1.399       .  A
C3961      C3966   1.394       .  A
C3961      H3971   1.084       .  S
C3962      C3967   1.509       .  S
C3962      C3963   1.423       .  A
C3963      C3964   1.421       .  A
C3963      S3968   1.803       .  S
C3964      C3965   1.413       .  A
C3964      H3969   1.083       .  S
C3965      C3966   1.420       .  A
C3966      S3970   1.786       .  S
C3967      C3972   1.418       .  A
C3967      C3976   1.401       .  A
S3968      H3984   1.405       .  S
S3970      H3981   1.404       .  S
C3972      C3973   1.421       .  A
C3972      S3977   1.803       .  S
C3973      C3974   1.410       .  A
C3974      C3975   1.415       .  A
C3975      C3976   1.401       .  A
C3976      H3980   1.083       .  S
S3979      H3983   1.407       .  S
C3985      C3986   1.402       .  A
C3985      C3990   1.403       .  A
C3985      H3995   1.084       .  S
C3986      C3991   1.506       .  S
C3986      C3987   1.419       .  A
C3987      C3988   1.414       .  A
C3987      S3992   1.800       .  S
C3988      C3989   1.407       .  A
C3988      H3993   1.082       .  S
C3989      C3990   1.417       .  A
C3991      C3996   1.414       .  A
C3991      C4000   1.397       .  A
S3992      H4008   1.404       .  S
S3994      H4005   1.407       .  S
C3996      C3997   1.420       .  A
C3996      S4001   1.804       .  S
C3997      C3998   1.411       .  A
C3997      H4002   1.078       .  S
C3998      C3999   1.431       .  A
C3999      C4000   1.402       .  A
C3999      S4003   1.804       .  S
C4000      H4004   1.084       .  S
S4001      H4006   1.407       .  S
S4003      H4007   1.381       .  S
C4009      C4010   1.406       .  A
C4009      C4014   1.415       .  A
C4009      H4019   1.082       .  S
C4010      C4015   1.505       .  S
C4010      C4011   1.415       .  A
C4011      C4012   1.405       .  A
C4011      S4016   1.804       .  S
C4012      C4013   1.406       .  A
C4012      H4017   1.079       .  S
C4013      C4014   1.417       .  A
C4014      S4018   1.798       .  S
C4015      C4020   1.416       .  A
C4015      C4024   1.396       .  A
S4016      H4032   1.406       .  S
S4018      H4029   1.406       .  S
C4020      C4021   1.419       .  A
C4020      S4025   1.804       .  S
C4021      C4022   1.411       .  A
C4021      H4026   1.082       .  S
C4022      C4023   1.431       .  A
C4023      C4024   1.399       .  A
C4023      S4027   1.803       .  S
C4024      H4028   1.084       .  S
S4025      H4030   1.407       .  S
S4027      H4031   1.386       .  S
C4033      C4034   1.401       .  A
C4033      C4038   1.400       .  A
C4033      H4043   1.084       .  S
C4034      C4039   1.482       .  S
C4034      C4035   1.411       .  A
C4035      C4036   1.400       .  A
C4035      S4040   1.801       .  S
C4036      C4037   1.405       .  A
C4036      H4041   1.084       .  S
C4037      C4038   1.416       .  A
C4039      C4044   1.409       .  A
C4039      C4048   1.399       .  A
S4040      H4056   1.407       .  S
S4042      H4053   1.407       .  S
C4044      C4045   1.406       .  A
C4044      S4049   1.804       .  S
C4045      C4046   1.405       .  A
C4045      H4050   1.082       .  S
C4046      C4047   1.412       .  A
C4047      C4048   1.400       .  A
C4047      S4051   1.799       .  S
C4048      H4052   1.083       .  S
S4049      H4054   1.407       .  S
S4051      H4055   1.406       .  S
C4057      C4058   1.395       .  A
C4057      C4062   1.393       .  A
C4057      H4067   1.085       .  S
C4058      C4063   1.482       .  S
C4058      C4059   1.413       .  A
C4059      C4060   1.406       .  A
C4059      S4064   1.803       .  S
C4060      C4061   1.406       .  A
C4060      H4065   1.084       .  S
C4061      C4062   1.420       .  A
C4062      S4066   1.790       .  S
C4063      C4068   1.411       .  A
C4063      C4072   1.402       .  A
S4064      H4080   1.405       .  S
S4066      H4077   1.383       .  S
C4068      C4069   1.402       .  A
C4068      S4073   1.808       .  S
C4069      C4070   1.404       .  A
C4069      H4074   1.083       .  S
C4070      C4071   1.415       .  A
C4071      C4072   1.402       .  A
C4071      S4075   1.803   1_655  S
C4072      H4076   1.084       .  S
S4073      H4078   1.407       .  S
S4075      H4079   1.407       .  S
C4081      C4082   1.401       .  A
C4081      C4086   1.398       .  A
C4081      H4091   1.084       .  S
C4082      C4087   1.475       .  S
C4082      C4083   1.410       .  A
C4083      C4084   1.398       .  A
C4083      S4088   1.805       .  S
C4084      C4085   1.405       .  A
C4084      H4089   1.084       .  S
C4085      C4086   1.414       .  A
C4086      S4090   1.799       .  S
C4087      C4092   1.405       .  A
C4087      C4096   1.400       .  A
S4088      H4104   1.405       .  S
S4090      H4101   1.407       .  S
C4092      C4093   1.399       .  A
C4092      S4097   1.806       .  S
C4093      C4094   1.406       .  A
C4093      H4098   1.081       .  S
C4094      C4095   1.417       .  A
C4095      C4096   1.403       .  A
C4095      S4099   1.807       .  S
C4096      H4100   1.083       .  S
S4097      H4102   1.407       .  S
S4099      H4103   1.406       .  S
C4105      C4106   1.401       .  A
C4105      C4110   1.398       .  A
C4105      H4115   1.084       .  S
C4106      C4111   1.483       .  S
C4106      C4107   1.415       .  A
C4107      C4108   1.402       .  A
C4107      S4112   1.804       .  S
C4108      C4109   1.401       .  A
C4108      H4113   1.084       .  S
C4109      C4110   1.414       .  A
C4110      S4114   1.805       .  S
C4111      C4116   1.413       .  A
C4111      C4120   1.400       .  A
S4112      H4128   1.406       .  S
S4114      H4125   1.407       .  S
C4116      C4117   1.405       .  A
C4116      S4121   1.807       .  S
C4117      C4118   1.403       .  A
C4117      H4122   1.083       .  S
C4118      C4119   1.416       .  A
C4119      C4120   1.399       .  A
C4119      S4123   1.805       .  S
C4120      H4124   1.084       .  S
S4121      H4126   1.407       .  S
S4123      H4127   1.407       .  S
C4129      C4130   1.403       .  A
C4129      C4134   1.398       .  A
C4129      H4139   1.084       .  S
C4130      C4135   1.469       .  S
C4130      C4131   1.407       .  A
C4131      C4132   1.394       .  A
C4131      S4136   1.804       .  S
C4132      C4133   1.405       .  A
C4132      H4137   1.084       .  S
C4133      C4134   1.411       .  A
C4134      S4138   1.803       .  S
C4135      C4140   1.404       .  A
C4135      C4144   1.402       .  A
S4136      H4152   1.406       .  S
S4138      H4149   1.407       .  S
C4140      C4141   1.397       .  A
C4140      S4145   1.807       .  S
C4141      C4142   1.407       .  A
C4141      H4146   1.083       .  S
C4142      C4143   1.412       .  A
C4143      C4144   1.397       .  A
C4143      S4147   1.803       .  S
C4144      H4148   1.084       .  S
S4145      H4150   1.407       .  S
S4147      H4151   1.408       .  S
C4153      C4154   1.400       .  A
C4153      C4158   1.400       .  A
C4153      H4163   1.082       .  S
C4154      C4159   1.475       .  S
C4154      C4155   1.413       .  A
C4155      C4156   1.397       .  A
C4155      S4160   1.805       .  S
C4156      C4157   1.402       .  A
C4156      H4161   1.083       .  S
C4157      C4158   1.415       .  A
C4158      S4162   1.809       .  S
C4159      C4164   1.412       .  A
C4159      C4168   1.398       .  A
S4160      H4176   1.405       .  S
S4162      H4173   1.407       .  S
C4164      C4165   1.404       .  A
C4164      S4169   1.806       .  S
C4165      C4166   1.402       .  A
C4165      H4170   1.083       .  S
C4166      C4167   1.414       .  A
C4167      C4168   1.394       .  A
C4168      H4172   1.084       .  S
S4169      H4174   1.407       .  S
S4171      H4175   1.407       .  S
C4177      C4178   1.399       .  A
C4177      H4187   1.084       .  S
C4178      C4183   1.472       .  S
C4179      C4180   1.397       .  A
C4179      S4184   1.805       .  S
C4180      C4181   1.406       .  A
C4180      H4185   1.084       .  S
C4181      C4182   1.418       .  A
C4182      S4186   1.803       .  S
C4183      C4188   1.404       .  A
C4183      C4192   1.398       .  A
S4186      H4197   1.407       .  S
C4188      C4189   1.400       .  A
C4188      S4193   1.804       .  S
C4189      C4190   1.407       .  A
C4189      H4194   1.079       .  S
C4190      C4191   1.414       .  A
C4191      C4192   1.398       .  A
C4191      S4195   1.803       .  S
C4192      H4196   1.083       .  S
S4193      H4198   1.408       .  S
S4195      H4199   1.407       .  S
C4201      C4202   1.403       .  A
C4201      H4211   1.084       .  S
C4202      C4207   1.477       .  S
C4203      C4204   1.397       .  A
C4203      S4208   1.801       .  S
C4204      C4205   1.402       .  A
C4204      H4209   1.084       .  S
C4205      C4206   1.414       .  A
C4206      S4210   1.804       .  S
C4207      C4212   1.408       .  A
C4207      C4216   1.401       .  A
S4208      H4224   1.406       .  S
S4210      H4221   1.407       .  S
C4212      C4213   1.398       .  A
C4212      S4217   1.807       .  S
C4213      C4214   1.401       .  A
C4213      H4218   1.080       .  S
C4214      C4215   1.416       .  A
C4215      C4216   1.401       .  A
C4215      S4219   1.805       .  S
C4216      H4220   1.084       .  S
S4217      H4222   1.407       .  S
S4219      H4223   1.398       .  S
C4225      C4226   1.401       .  A
C4225      C4230   1.399       .  A
C4225      H4235   1.084       .  S
C4226      C4231   1.479       .  S
C4226      C4227   1.412       .  A
C4227      C4228   1.399       .  A
C4227      S4232   1.805       .  S
C4228      C4229   1.405       .  A
C4228      H4233   1.084       .  S
C4229      C4230   1.417       .  A
C4230      S4234   1.804       .  S
C4231      C4236   1.406       .  A
C4231      C4240   1.398       .  A
S4232      H4248   1.406       .  S
S4234      H4245   1.407       .  S
C4236      C4237   1.401       .  A
C4236      S4241   1.806       .  S
C4237      C4238   1.404       .  A
C4237      H4242   1.077       .  S
C4238      C4239   1.419       .  A
C4239      C4240   1.401       .  A
C4239      S4243   1.801       .  S
C4240      H4244   1.083       .  S
S4241      H4246   1.407       .  S
S4243      H4247   1.406       .  S
