geometry optimzed in LAMMPS
_audit_creation_date              2020-11-30 
_audit_creation_method            'lammps2cif' 
_symmetry_space_group_name_H-M    'P1' 
_symmetry_Int_Tables_number       1 
_symmetry_cell_setting            triclinic 
loop_ 
_symmetry_equiv_pos_as_xyz 
  x,y,z 
_cell_length_a                    25.89577121 
_cell_length_b                    49.738129567751784 
_cell_length_c                    44.478812451416566 
_cell_angle_alpha                 90.49608976229989 
_cell_angle_beta                  91.93210663298632 
_cell_angle_gamma                 74.54307220278133 
loop_ 
_atom_site_label 
_atom_site_type_symbol 
_atom_site_fract_x 
_atom_site_fract_y 
_atom_site_fract_z 
_atom_site_charge 
N1          N  0.98857021  0.35977355  0.47972943    -0.03500
C2          C  0.98096830  0.38625482  0.99029628    -0.00900
C3          C  0.43718064  0.40387088  0.97566650    -0.23800
C4          C  0.41641292  0.38770277  0.95594395    -0.24000
C5          C  0.44676367  0.36040485  0.45984773    -0.01000
H6          H  0.41918646  0.42551447  0.98090910     0.12800
H7          H  0.37907765  0.39464434  0.94297194     0.12800
N8          N  0.06185230  0.11935467  0.52389921    -0.03500
C9          C  0.07086983  0.10069160  0.04743744    -0.00900
C10         C  0.12280360  0.09632891  0.05880884    -0.23800
C11         C  0.14627856  0.11304168  0.04307865    -0.24000
C12         C  0.10908749  0.12662238  0.52153650    -0.01000
H13         H  0.14155707  0.08250509  0.07702649     0.12800
H14         H  0.18688583  0.11468192  0.04653488     0.12800
Fe15       Fe  0.34284642  0.22060546  0.39468616     1.65800
Fe16       Fe  0.20740986  0.23503786  0.39548411     1.73200
Fe17       Fe  0.28001602  0.23163880  0.46105742     1.54400
O18         O  0.33630270  0.19392539  0.46463258    -0.81700
O19         O  0.16731047  0.26664852  0.42376827    -0.80000
O20         O  0.39113038  0.19576702  0.42839487    -0.84200
O21         O  0.36040486  0.25548633  0.41249957    -0.79000
O22         O  0.22341096  0.20973135  0.46661565    -0.80800
O23         O  0.22273389  0.26515012  0.36751880    -0.83600
C24         C  0.35936150  0.26447452  0.43934954     0.97200
C25         C  0.38198175  0.18612357  0.45346033     1.04600
O26         O  0.27639832  0.22914640  0.41716400    -1.12500
O27         O  0.23888582  0.20396353  0.36455873    -0.75000
O28         O  0.32649469  0.18578976  0.37447268    -0.78500
O29         O  0.33760081  0.25440215  0.46031699    -0.79200
C30         C  0.28280709  0.18545343  0.36053852     0.96100
O31         O  0.30792338  0.24466354  0.35772491    -0.77100
O32         O  0.18582762  0.20549423  0.42143497    -0.82300
C33         C  0.17811502  0.27788711  0.44812685     0.98700
C34         C  0.19305048  0.19978521  0.44933693     1.04600
O35         O  0.22187176  0.26891805  0.46292653    -0.76500
C36         C  0.26399813  0.26282833  0.35200054     1.02900
N37         N  0.31300038  0.34308830  0.23799427    -0.03500
C38         C  0.32100485  0.31684583  0.24981107    -0.00900
C39         C  0.36977595  0.30003551  0.24105044    -0.23800
C40         C  0.39284087  0.31609774  0.22374546    -0.24000
C41         C  0.35838432  0.34265367  0.22288594    -0.01000
H42         H  0.38845224  0.27893202  0.24842327     0.12800
H43         H  0.43305747  0.30983338  0.21536129     0.12800
N44         N  0.23338561  0.10072307  0.24810169    -0.03500
C45         C  0.22491186  0.12730240  0.25889709    -0.00900
C46         C  0.17437558  0.14299851  0.24934580    -0.23800
C47         C  0.15010838  0.12547106  0.23374791    -0.24000
C48         C  0.18678216  0.09969716  0.23347531    -0.01000
H49         H  0.15472372  0.16402278  0.25632647     0.12800
H50         H  0.10890077  0.13048179  0.22537514     0.12800
Fe51       Fe  0.44774772  0.48102670  0.14431286     1.65800
Fe52       Fe  0.08441725  0.46740598  0.14394386     1.73200
Fe53       Fe  0.01990877  0.47387616  0.21072399     1.54400
O54         O  0.45492914  0.00794413  0.21579748    -0.81700
O55         O  0.12644894  0.43393734  0.17012825    -0.80000
O56         O  0.40395598  0.00923513  0.17478113    -0.84200
O57         O  0.43095073  0.44783385  0.16644385    -0.79000
O58         O  0.06678888  0.00168583  0.21230953    -0.80800
O59         O  0.06518495  0.43914233  0.11409947    -0.83600
C60         C  0.44119067  0.43773490  0.19294474     0.97200
C61         C  0.41188043  0.01804866  0.20086205     1.04600
O62         O  0.01745669  0.47395382  0.16637917    -1.12500
O63         O  0.05069365  0.00078400  0.11531095    -0.75000
O64         O  0.46183595  0.01448788  0.12116752    -0.78500
O65         O  0.47110424  0.44659208  0.21184700    -0.79200
C66         C  0.00481008  0.01781831  0.11051151     0.96100
O67         O  0.47673207  0.45434068  0.10922868    -0.77100
O68         O  0.11348130  0.99452077  0.17075948    -0.82300
C69         C  0.12440439  0.42721401  0.19744178     0.98700
C70         C  0.10192122  0.00686170  0.19566652     1.04600
O71         O  0.08724400  0.43998940  0.21437879    -0.77900
C72         C  0.02118876  0.43878918  0.10103411     1.02900
C73         C  0.35417569  0.03899467  0.24460102    -0.01900
C74         C  0.36925687  0.04086776  0.21445037     0.07800
C75         C  0.34353562  0.06490406  0.19748978    -0.02000
C76         C  0.30306635  0.08626444  0.21023193    -0.02000
C77         C  0.28457296  0.08304464  0.23915756     0.08000
C78         C  0.31224550  0.06012556  0.25682789    -0.02200
Br79       Br  0.29409880  0.05855284  0.29818875    -0.00700
Br80       Br  0.38708373  0.50643636  0.26866056    -0.00800
Br81       Br  0.27491030  0.12084405  0.18856861    -0.00700
Br82       Br  0.36265868  0.06897655  0.15651496    -0.00700
C83         C  0.13482590  0.03495625  0.23625118    -0.01900
C84         C  0.12945473  0.02865946  0.20531371     0.07800
C85         C  0.14771433  0.04472606  0.18371747    -0.02000
C86         C  0.16627299  0.06783618  0.19290403    -0.02000
C87         C  0.17213760  0.07377975  0.22366650     0.08000
C88         C  0.15638181  0.05706723  0.24513794    -0.02200
Br89       Br  0.15851397  0.06583101  0.28716259    -0.00700
Br90       Br  0.11299624  0.01385777  0.26764705    -0.00800
Br91       Br  0.17862535  0.09275257  0.16276997    -0.00700
Br92       Br  0.14643183  0.03673723  0.14098240    -0.00700
C93         C  0.42213476  0.37254881  0.23209544    -0.01900
C94         C  0.37767344  0.36770225  0.21560708     0.07800
C95         C  0.35420058  0.38618435  0.19206510    -0.02000
C96         C  0.37080374  0.41059392  0.18728648    -0.02000
C97         C  0.41810813  0.41428279  0.20187891     0.08000
C98         C  0.44415741  0.39449795  0.22413156    -0.02200
Br99       Br  0.51196852  0.39552635  0.24324624    -0.00700
Br100      Br  0.45360236  0.34929194  0.26622701    -0.00800
Br101      Br  0.32465857  0.43966619  0.16262019    -0.00700
Br102      Br  0.30469199  0.37671742  0.16335461    -0.00700
C103        C  0.18008693  0.37729675  0.19882896    -0.01900
C104        C  0.16898732  0.40451754  0.21051555     0.07800
C105        C  0.20407580  0.41084877  0.23277690    -0.02000
C106        C  0.25015817  0.39037697  0.24300342    -0.02000
C107        C  0.26151092  0.36293764  0.23153195     0.08000
C108        C  0.22610382  0.35670713  0.20907578    -0.02200
Br109      Br  0.24577222  0.32195477  0.18755322    -0.00700
Br110      Br  0.13350713  0.36871295  0.16747679    -0.00800
Br111      Br  0.30007534  0.40125982  0.27035036    -0.00700
Br112      Br  0.19233290  0.44853001  0.24709895    -0.00700
C113        C  0.31062826  0.16028637  0.31173888    -0.01900
C114        C  0.28067258  0.16344004  0.33809304     0.07800
C115        C  0.23900289  0.15035559  0.33978366    -0.02000
C116        C  0.22240947  0.13763198  0.31431741    -0.02000
C117        C  0.25034388  0.13545797  0.28711259     0.08000
C118        C  0.29585438  0.14609054  0.28644568    -0.02200
Br119      Br  0.33456584  0.14437011  0.25010336    -0.00700
Br120      Br  0.36817774  0.17800448  0.30909296    -0.00800
Br121      Br  0.15584003  0.12749221  0.31655542    -0.00700
Br122      Br  0.20172349  0.15147621  0.37687126    -0.00700
C123        C  0.25633383  0.27139891  0.29670494    -0.01900
C124        C  0.26263444  0.28136745  0.32589995     0.07800
C125        C  0.28124846  0.30528716  0.32970251    -0.02000
C126        C  0.29750821  0.31792092  0.30466270    -0.02000
C127        C  0.29189745  0.30798767  0.27503241     0.08000
C128        C  0.27167044  0.28421481  0.27150804    -0.02200
Br129      Br  0.27316170  0.26574038  0.23318310    -0.00700
Br130      Br  0.23093152  0.23839885  0.29174376    -0.00800
Br131      Br  0.33971070  0.34375840  0.31258954    -0.00700
Br132      Br  0.28987688  0.31877930  0.36995660    -0.00700
C133        C  0.11714183  0.19094632  0.47717751    -0.01900
C134        C  0.16599183  0.18041492  0.46283022     0.07800
C135        C  0.19304699  0.15198687  0.46559426    -0.02000
C136        C  0.17040580  0.13399892  0.48176061    -0.02000
C137        C  0.12366470  0.14488785  0.49851676     0.08000
C138        C  0.09823984  0.17380672  0.49674929    -0.02200
Br139      Br  0.04521784  0.19157031  0.52496471    -0.00700
Br140      Br  0.07777653  0.22938323  0.47122299    -0.00800
Br141      Br  0.20564297  0.09444806  0.48168735    -0.00700
Br142      Br  0.26380670  0.13821100  0.44974570    -0.00700
C143        C  0.51125243  0.12980421  0.47469508    -0.01900
C144        C  0.51255756  0.13164706  0.50652196     0.07800
C145        C  0.46831908  0.14967604  0.52051925    -0.02000
C146        C  0.42669458  0.16761549  0.50327393    -0.02000
C147        C  0.42585164  0.16622476  0.47134698     0.08000
C148        C  0.46789992  0.14651835  0.45728755    -0.02200
Br149      Br  0.46667194  0.14187262  0.41410502    -0.00700
Br150      Br  0.56879374  0.10416398  0.45448096    -0.00800
Br151      Br  0.37541538  0.19670217  0.52438566    -0.00700
Br152      Br  0.96717556  0.15322101  0.56354198    -0.00700
C153        C  0.02820865  0.08724205  0.09285417    -0.01900
C154        C  0.03449726  0.08549779  0.06113464     0.07800
C155        C  0.02076880  0.06333823  0.04548291    -0.02000
C156        C  0.00612006  0.04212336  0.06143114    -0.02000
C157        C  0.00341260  0.04324761  0.09298501     0.08000
C158        C  0.01100871  0.06675489  0.10834320    -0.02200
Br159      Br  0.00330616  0.06923773  0.15144531    -0.00700
Br160      Br  0.05029577  0.11535106  0.11653706    -0.00800
Br161      Br  0.49378504  0.51015171  0.04052427    -0.00700
Br162      Br  0.02943128  0.05931084  0.00286082    -0.00700
C163        C  0.11704182  0.32575550  0.44180126    -0.01900
C164        C  0.13693152  0.30195847  0.45985805     0.07800
C165        C  0.11320813  0.30007788  0.48763819    -0.02000
C166        C  0.06477831  0.31962421  0.49481634    -0.02000
C167        C  0.04174567  0.34192530  0.47516372     0.08000
C168        C  0.07057536  0.34615882  0.44988264    -0.02200
Br169      Br  0.04347340  0.37820813  0.42398769    -0.00700
Br170      Br  0.15264782  0.32988219  0.40536161    -0.00800
Br171      Br  0.02917890  0.31533396  0.03090704    -0.00700
Br172      Br  0.14587103  0.27037711  0.51547242    -0.00700
C173        C  0.37511644  0.33488698  0.46677179    -0.01900
C174        C  0.42396595  0.33592171  0.45370858     0.07800
C175        C  0.44918632  0.31375479  0.43460067    -0.02000
C176        C  0.43072065  0.28955930  0.43202823    -0.02000
C177        C  0.38319115  0.28819522  0.44592111     0.08000
C178        C  0.35518354  0.31125169  0.46298543    -0.02200
Br179      Br  0.28698900  0.31183804  0.47982672    -0.00700
Br180      Br  0.33091135  0.36655079  0.98773923    -0.00800
Br181      Br  0.47208752  0.25798495  0.40968190    -0.00700
Br182      Br  0.00119985  0.31808353  0.40662103    -0.00700
C183        C  0.47328615  0.39122411  0.04627599    -0.01900
C184        C  0.00125981  0.39383201  0.02015948     0.07800
C185        C  0.04167284  0.40806284  0.02222202    -0.02000
C186        C  0.05167371  0.42093958  0.04947965    -0.02000
C187        C  0.02046370  0.42013889  0.07477823     0.08000
C188        C  0.48309836  0.40407387  0.07339270    -0.02200
Br189      Br  0.44464559  0.39978045  0.10881222    -0.00700
Br190      Br  0.41798026  0.37197023  0.04490209    -0.00800
Br191      Br  0.10531379  0.44149042  0.05114026    -0.00700
Br192      Br  0.08118874  0.41158154  0.98730194    -0.00700
N193        N  0.98856989  0.35977403  0.97972881    -0.03500
C194        C  0.98096875  0.38625433  0.49029695    -0.00900
C195        C  0.43718112  0.40387127  0.47566558    -0.23800
C196        C  0.41641309  0.38770332  0.45594299    -0.24000
C197        C  0.44676384  0.36040436  0.95984881    -0.01000
H198        H  0.41918708  0.42551487  0.48090836     0.12800
H199        H  0.37907771  0.39464507  0.44297096     0.12800
N200        N  0.06185168  0.11935422  0.02389857    -0.03500
C201        C  0.07087028  0.10069227  0.54743829    -0.00900
C202        C  0.12280367  0.09633009  0.55881015    -0.23800
C203        C  0.14627847  0.11304293  0.54307998    -0.24000
C204        C  0.10908711  0.12662160  0.02153560    -0.01000
H205        H  0.14155691  0.08250655  0.57702803     0.12800
H206        H  0.18688570  0.11468350  0.54653648     0.12800
Fe207      Fe  0.34284604  0.22060546  0.89468654     1.65800
Fe208      Fe  0.20740951  0.23503789  0.89548432     1.73200
Fe209      Fe  0.28001550  0.23163870  0.96105785     1.54400
O210        O  0.33630286  0.19392550  0.96463331    -0.81700
O211        O  0.16731018  0.26664871  0.92376831    -0.80000
O212        O  0.39112995  0.19576700  0.92839517    -0.84200
O213        O  0.36040433  0.25548632  0.91250009    -0.79000
O214        O  0.22341068  0.20973104  0.96661590    -0.80800
O215        O  0.22273373  0.26515007  0.86751902    -0.83600
C216        C  0.35936081  0.26447449  0.93935009     0.97200
C217        C  0.38198174  0.18612368  0.95346078     1.04600
O218        O  0.27639789  0.22914632  0.91716437    -1.12500
O219        O  0.23888565  0.20396346  0.86455901    -0.75000
O220        O  0.32649451  0.18578974  0.87447294    -0.78500
O221        O  0.33759995  0.25440217  0.96031748    -0.79200
C222        C  0.28280695  0.18545338  0.86053876     0.96100
O223        O  0.30792326  0.24466358  0.85772525    -0.77100
O224        O  0.18582678  0.20549444  0.92143522    -0.82300
C225        C  0.17811454  0.27788716  0.94812702     0.98700
C226        C  0.19304984  0.19978519  0.94933713     1.04600
O227        O  0.22187095  0.26891785  0.96292694    -0.76500
C228        C  0.26399798  0.26282829  0.85200080     1.02900
N229        N  0.31299917  0.34308835  0.73799422    -0.03500
C230        C  0.32100331  0.31684595  0.74981117    -0.00900
C231        C  0.36977458  0.30003557  0.74105091    -0.23800
C232        C  0.39283998  0.31609765  0.72374606    -0.24000
C233        C  0.35838344  0.34265356  0.72288615    -0.01000
H234        H  0.38845077  0.27893212  0.74842404     0.12800
H235        H  0.43305686  0.30983325  0.71536230     0.12800
N236        N  0.23338708  0.10072243  0.74810211    -0.03500
C237        C  0.22491396  0.12730194  0.75889685    -0.00900
C238        C  0.17437825  0.14299834  0.74934488    -0.23800
C239        C  0.15011072  0.12547087  0.73374727    -0.24000
C240        C  0.18678367  0.09969670  0.73347553    -0.01000
H241        H  0.15472698  0.16402277  0.75632494     0.12800
H242        H  0.10890326  0.13048187  0.72537400     0.12800
Fe243      Fe  0.44774876  0.48102607  0.64431274     1.65800
Fe244      Fe  0.08441668  0.46740629  0.64394403     1.73200
Fe245      Fe  0.01990803  0.47387668  0.71072407     1.54400
O246        O  0.45493041  0.00794345  0.71579779    -0.81700
O247        O  0.12644795  0.43393750  0.67012835    -0.80000
O248        O  0.40395717  0.00923439  0.67478148    -0.84200
O249        O  0.43095203  0.44783302  0.66644345    -0.79000
O250        O  0.06678838  0.00168607  0.71230949    -0.80800
O251        O  0.06518442  0.43914271  0.61409961    -0.83600
C252        C  0.44119160  0.43773408  0.69294433     0.97200
C253        C  0.41188164  0.01804788  0.70086244     1.04600
O254        O  0.01745602  0.47395421  0.66637925    -1.12500
O255        O  0.05069316  0.00078417  0.61531077    -0.75000
O256        O  0.46183701  0.01448748  0.62116771    -0.78500
O257        O  0.47110501  0.44659127  0.71184672    -0.79200
C258        C  0.00480961  0.01781853  0.61051131     0.96100
O259        O  0.47673325  0.45434040  0.60922823    -0.77100
O260        O  0.11348079  0.99452100  0.67075944    -0.82300
C261        C  0.12440331  0.42721419  0.69744188     0.98700
C262        C  0.10192080  0.00686191  0.69566652     1.04600
O263        O  0.08724317  0.43998979  0.71437894    -0.77900
C264        C  0.02118833  0.43878937  0.60103432     1.02900
C265        C  0.35417696  0.03899384  0.74460145    -0.01900
C266        C  0.36925814  0.04086693  0.71445081     0.07800
C267        C  0.34353708  0.06490324  0.69749028    -0.02000
C268        C  0.30306783  0.08626361  0.71023237    -0.02000
C269        C  0.28457426  0.08304382  0.73915795     0.08000
C270        C  0.31224674  0.06012475  0.75682830    -0.02200
Br271      Br  0.29410022  0.05855216  0.79818919    -0.00700
Br272      Br  0.38708589  0.50643571  0.76866117    -0.00800
Br273      Br  0.27491248  0.12084324  0.68856904    -0.00700
Br274      Br  0.36266019  0.06897570  0.65651551    -0.00700
C275        C  0.13482612  0.03495620  0.73625130    -0.01900
C276        C  0.12945449  0.02865958  0.70531379     0.07800
C277        C  0.14771381  0.04472629  0.68371757    -0.02000
C278        C  0.16627328  0.06783614  0.69290422    -0.02000
C279        C  0.17213863  0.07377943  0.72366671     0.08000
C280        C  0.15638270  0.05706694  0.74513812    -0.02200
Br281      Br  0.15851560  0.06583054  0.78716281    -0.00700
Br282      Br  0.11299566  0.01385796  0.76764706    -0.00800
Br283      Br  0.17862604  0.09275253  0.66277033    -0.00700
Br284      Br  0.14642989  0.03673789  0.64098241    -0.00700
C285        C  0.42213346  0.37254882  0.73209592    -0.01900
C286        C  0.37767278  0.36770202  0.71560715     0.07800
C287        C  0.35420091  0.38618366  0.69206463    -0.02000
C288        C  0.37080475  0.41059298  0.68728556    -0.02000
C289        C  0.41810869  0.41428205  0.70187844     0.08000
C290        C  0.44415673  0.39449766  0.72413181    -0.02200
Br291      Br  0.51196699  0.39552631  0.74324734    -0.00700
Br292      Br  0.45359913  0.34929277  0.76622846    -0.00800
Br293      Br  0.32466093  0.43966472  0.66261812    -0.00700
Br294      Br  0.30469238  0.37671638  0.66335432    -0.00700
C295        C  0.18008563  0.37729685  0.69882902    -0.01900
C296        C  0.16898604  0.40451763  0.71051562     0.07800
C297        C  0.20407467  0.41084888  0.73277681    -0.02000
C298        C  0.25015745  0.39037724  0.74300298    -0.02000
C299        C  0.26150993  0.36293782  0.73153176     0.08000
C300        C  0.22610257  0.35670723  0.70907580    -0.02200
Br301      Br  0.24577057  0.32195470  0.68755359    -0.00700
Br302      Br  0.13350571  0.36871309  0.66747694    -0.00800
Br303      Br  0.30007523  0.40126059  0.77034903    -0.00700
Br304      Br  0.19233126  0.44853002  0.74709916    -0.00700
C305        C  0.31062935  0.16028588  0.81173942    -0.01900
C306        C  0.28067252  0.16344002  0.83809319     0.07800
C307        C  0.23900221  0.15035594  0.83978335    -0.02000
C308        C  0.22240948  0.13763220  0.81431700    -0.02000
C309        C  0.25034510  0.13545770  0.78711256     0.08000
C310        C  0.29585607  0.14608993  0.78644612    -0.02200
Br311      Br  0.33456911  0.14436882  0.75010424    -0.00700
Br312      Br  0.36818018  0.17800318  0.80909425    -0.00800
Br313      Br  0.15583952  0.12749279  0.81655426    -0.00700
Br314      Br  0.20172135  0.15147700  0.87687053    -0.00700
C315        C  0.25633419  0.27139842  0.79670514    -0.01900
C316        C  0.26263405  0.28136727  0.82590007     0.07800
C317        C  0.28124643  0.30528748  0.82970251    -0.02000
C318        C  0.29750527  0.31792154  0.80466264    -0.02000
C319        C  0.29189553  0.30798790  0.77503240     0.08000
C320        C  0.27166984  0.28421460  0.77150816    -0.02200
Br321      Br  0.27316168  0.26574008  0.73318326    -0.00700
Br322      Br  0.23093437  0.23839756  0.79174416    -0.00800
Br323      Br  0.33970504  0.34376023  0.81258948    -0.00700
Br324      Br  0.28987415  0.31877989  0.86995657    -0.00700
C325        C  0.11714145  0.19094613  0.97717778    -0.01900
C326        C  0.16599113  0.18041483  0.96283017     0.07800
C327        C  0.19304592  0.15198669  0.96559349    -0.02000
C328        C  0.17040469  0.13399854  0.98175948    -0.02000
C329        C  0.12366413  0.14488734  0.99851610     0.08000
C330        C  0.09823972  0.17380629  0.99674938    -0.02200
Br331      Br  0.04521912  0.19156954  0.02496567    -0.00700
Br332      Br  0.07777645  0.22938320  0.97122408    -0.00800
Br333      Br  0.20564139  0.09444762  0.98168530    -0.00700
Br334      Br  0.26380535  0.13821095  0.94974455    -0.00700
C335        C  0.51125234  0.12980413  0.97469508    -0.01900
C336        C  0.51255816  0.13164715  0.00652194     0.07800
C337        C  0.46832027  0.14967650  0.02051936    -0.02000
C338        C  0.42669621  0.16761636  0.00327416    -0.02000
C339        C  0.42585202  0.16622503  0.97134729     0.08000
C340        C  0.46789943  0.14651817  0.95728776    -0.02200
Br341      Br  0.46666960  0.14187174  0.91410537    -0.00700
Br342      Br  0.56879298  0.10416372  0.95448070    -0.00800
Br343      Br  0.37541973  0.19670446  0.02438566    -0.00700
Br344      Br  0.96717481  0.15322043  0.06354157    -0.00700
C345        C  0.02820801  0.08724244  0.59285457    -0.01900
C346        C  0.03449784  0.08549813  0.56113513     0.07800
C347        C  0.02077040  0.06333838  0.54548320    -0.02000
C348        C  0.00612104  0.04212352  0.56143111    -0.02000
C349        C  0.00341230  0.04324787  0.59298491     0.08000
C350        C  0.01100760  0.06675524  0.60834327    -0.02200
Br351      Br  0.00330355  0.06923811  0.65144528    -0.00700
Br352      Br  0.05029435  0.11535143  0.61653792    -0.00800
Br353      Br  0.49378847  0.51015084  0.54052418    -0.00700
Br354      Br  0.02943556  0.05931059  0.50286138    -0.00700
C355        C  0.11704203  0.32575573  0.94180125    -0.01900
C356        C  0.13693123  0.30195870  0.95985810     0.07800
C357        C  0.11320766  0.30007838  0.98763822    -0.02000
C358        C  0.06477793  0.31962486  0.99481620    -0.02000
C359        C  0.04174545  0.34192577  0.97516336     0.08000
C360        C  0.07057549  0.34615912  0.94988236    -0.02200
Br361      Br  0.04347425  0.37820831  0.92398721    -0.00700
Br362      Br  0.15264913  0.32988236  0.90536202    -0.00800
Br363      Br  0.02917941  0.31533289  0.53090716    -0.00700
Br364      Br  0.14587009  0.27037777  0.01547269    -0.00700
C365        C  0.37511655  0.33488661  0.96677289    -0.01900
C366        C  0.42396625  0.33592119  0.95370979     0.07800
C367        C  0.44918661  0.31375422  0.93460191    -0.02000
C368        C  0.43072069  0.28955884  0.93202942    -0.02000
C369        C  0.38319064  0.28819506  0.94592183     0.08000
C370        C  0.35518300  0.31125159  0.96298604    -0.02200
Br371      Br  0.28698745  0.31183844  0.97982627    -0.00700
Br372      Br  0.33091039  0.36655130  0.48773747    -0.00800
Br373      Br  0.47208788  0.25798424  0.90968366    -0.00700
Br374      Br  0.00120084  0.31808347  0.90662057    -0.00700
C375        C  0.47328505  0.39122482  0.54627489    -0.01900
C376        C  0.00126048  0.39383138  0.52016013     0.07800
C377        C  0.04167341  0.40806225  0.52222262    -0.02000
C378        C  0.05167380  0.42093932  0.54948010    -0.02000
C379        C  0.02046349  0.42013887  0.57477860     0.08000
C380        C  0.48309760  0.40407424  0.57339177    -0.02200
Br381      Br  0.44464341  0.39978145  0.60881098    -0.00700
Br382      Br  0.41797771  0.37197187  0.54490049    -0.00800
Br383      Br  0.10531339  0.44149041  0.55114047    -0.00700
Br384      Br  0.08118968  0.41158071  0.48730261    -0.00700
N385        N  0.98859856  0.85976888  0.47971632    -0.03500
C386        C  0.98099475  0.88625176  0.99027812    -0.00900
C387        C  0.43721339  0.90386578  0.97564023    -0.23800
C388        C  0.41645173  0.88769439  0.95591867    -0.24000
C389        C  0.44679808  0.86039670  0.45983157    -0.01000
H390        H  0.41921767  0.92551039  0.98087748     0.12800
H391        H  0.37912195  0.89463446  0.94294132     0.12800
N392        N  0.06187760  0.61935480  0.52390732    -0.03500
C393        C  0.07088159  0.60069401  0.04744686    -0.00900
C394        C  0.12281253  0.59632834  0.05882392    -0.23800
C395        C  0.14629953  0.61303687  0.04309503    -0.24000
C396        C  0.10911747  0.62661818  0.52154890    -0.01000
H397        H  0.14155626  0.58250524  0.07704404     0.12800
H398        H  0.18690766  0.61467426  0.04655526     0.12800
Fe399      Fe  0.34287468  0.72060096  0.39468619     1.65800
Fe400      Fe  0.20743958  0.73502534  0.39548622     1.73200
Fe401      Fe  0.28004611  0.73163007  0.46105842     1.54400
O402        O  0.33633737  0.69391844  0.46463163    -0.81700
O403        O  0.16733628  0.76663518  0.42377053    -0.80000
O404        O  0.39116348  0.69576471  0.42839398    -0.84200
O405        O  0.36042533  0.75548282  0.41250017    -0.79000
O406        O  0.22344748  0.70971935  0.46661741    -0.80800
O407        O  0.22275421  0.76513961  0.36752053    -0.83600
C408        C  0.35938464  0.76446901  0.43935083     0.97200
C409        C  0.38201709  0.68612063  0.45345945     1.04600
O410        O  0.27642779  0.72913788  0.41716501    -1.12500
O411        O  0.23892154  0.70395253  0.36456069    -0.75000
O412        O  0.32653234  0.68578348  0.37447251    -0.78500
O413        O  0.33762568  0.75439605  0.46031839    -0.79200
C414        C  0.28284535  0.68544456  0.36053961     0.96100
O415        O  0.30794558  0.74465833  0.35772589    -0.77100
O416        O  0.18586623  0.70547878  0.42143726    -0.82300
C417        C  0.17814105  0.77787613  0.44812764     0.98700
C418        C  0.19309093  0.69977031  0.44933925     1.04600
O419        O  0.22189785  0.76890809  0.46292762    -0.76500
C420        C  0.26401698  0.76282058  0.35200187     1.02900
N421        N  0.31300732  0.84307536  0.23798945    -0.03500
C422        C  0.32101139  0.81683313  0.24980651    -0.00900
C423        C  0.36977972  0.80002171  0.24104332    -0.23800
C424        C  0.39284334  0.81608324  0.22373649    -0.24000
C425        C  0.35838898  0.84263980  0.22287848    -0.01000
H426        H  0.38845534  0.77891796  0.24841552     0.12800
H427        H  0.43305849  0.80981795  0.21535025     0.12800
N428        N  0.23337588  0.60073401  0.24809862    -0.03500
C429        C  0.22491636  0.62731047  0.25889975    -0.00900
C430        C  0.17438180  0.64301322  0.24935394    -0.23800
C431        C  0.15010243  0.62549262  0.23375274    -0.24000
C432        C  0.18676722  0.59971611  0.23347302    -0.01000
H433        H  0.15473952  0.66403723  0.25633998     0.12800
H434        H  0.10889255  0.63050934  0.22538285     0.12800
Fe435      Fe  0.44775258  0.98101933  0.14431316     1.65800
Fe436      Fe  0.08442299  0.96739247  0.14394429     1.73200
Fe437      Fe  0.01991540  0.97386181  0.21072489     1.54400
O438        O  0.45491964  0.50795751  0.21579370    -0.81700
O439        O  0.12644691  0.93391886  0.17012453    -0.80000
O440        O  0.40394669  0.50924304  0.17477812    -0.84200
O441        O  0.43095053  0.94782552  0.16644184    -0.79000
O442        O  0.06677748  0.50170229  0.21230452    -0.80800
O443        O  0.06518367  0.93913479  0.11409346    -0.83600
C444        C  0.44119216  0.93772403  0.19294185     0.97200
C445        C  0.41186986  0.51805883  0.20085803     1.04600
O446        O  0.01746234  0.97394232  0.16637964    -1.12500
O447        O  0.05068163  0.50079281  0.11530609    -0.75000
O448        O  0.46182480  0.51449518  0.12116529    -0.78500
O449        O  0.47110757  0.94657926  0.21184455    -0.79200
C450        C  0.00479705  0.51782643  0.11050806     0.96100
O451        O  0.47673161  0.95433632  0.10922516    -0.77100
O452        O  0.11346684  0.49454068  0.17075333    -0.82300
C453        C  0.12440454  0.92719643  0.19743859     0.98700
C454        C  0.10190532  0.50688119  0.19566031     1.04600
O455        O  0.08724797  0.93997368  0.21437690    -0.77900
C456        C  0.02118612  0.93878492  0.10102737     1.02900
C457        C  0.35415887  0.53900114  0.24459495    -0.01900
C458        C  0.36924290  0.54087622  0.21444532     0.07800
C459        C  0.34352016  0.56491215  0.19748474    -0.02000
C460        C  0.30305267  0.58627260  0.21022770    -0.02000
C461        C  0.28455729  0.58305137  0.23915237     0.08000
C462        C  0.31222433  0.56012992  0.25682100    -0.02200
Br463      Br  0.29406047  0.55854923  0.29817780    -0.00700
Br464      Br  0.38709600  0.00642952  0.26866705    -0.00800
Br465      Br  0.27490366  0.62085456  0.18856748    -0.00700
Br466      Br  0.36263698  0.56898372  0.15650863    -0.00700
C467        C  0.13480041  0.53497811  0.23624465    -0.01900
C468        C  0.12943246  0.52868136  0.20530714     0.07800
C469        C  0.14768933  0.54474966  0.18371146    -0.02000
C470        C  0.16624735  0.56785980  0.19289916    -0.02000
C471        C  0.17210954  0.57380285  0.22366196     0.08000
C472        C  0.15634880  0.55709116  0.24513224    -0.02200
Br473      Br  0.15846120  0.56585890  0.28715613    -0.00700
Br474      Br  0.11298138  0.51387474  0.26763997    -0.00800
Br475      Br  0.17860234  0.59277676  0.16276662    -0.00700
Br476      Br  0.14640817  0.53676146  0.14097626    -0.00700
C477        C  0.42214255  0.87253349  0.23208751    -0.01900
C478        C  0.37767975  0.86768798  0.21559969     0.07800
C479        C  0.35420343  0.88617227  0.19206011    -0.02000
C480        C  0.37080545  0.91058254  0.18728316    -0.02000
C481        C  0.41811092  0.91427076  0.20187475     0.08000
C482        C  0.44416217  0.89448448  0.22412595    -0.02200
Br483      Br  0.51196963  0.89551486  0.24324407    -0.00700
Br484      Br  0.45361598  0.84927272  0.26621548    -0.00800
Br485      Br  0.32465493  0.93965788  0.16262300    -0.00700
Br486      Br  0.30468965  0.87670794  0.16335100    -0.00700
C487        C  0.18008881  0.87727934  0.19882723    -0.01900
C488        C  0.16898826  0.90450062  0.21051238     0.07800
C489        C  0.20407770  0.91083368  0.23277198    -0.02000
C490        C  0.25016348  0.89036369  0.24299715    -0.02000
C491        C  0.26151711  0.86292382  0.23152724     0.08000
C492        C  0.22610859  0.85669126  0.20907316    -0.02200
Br493      Br  0.24577882  0.82193857  0.18755133    -0.00700
Br494      Br  0.13350540  0.86869247  0.16747899    -0.00800
Br495      Br  0.30008401  0.90125040  0.27033869    -0.00700
Br496      Br  0.19233004  0.94851507  0.24709419    -0.00700
C497        C  0.31066559  0.66027455  0.31174101    -0.01900
C498        C  0.28071211  0.66342975  0.33809607     0.07800
C499        C  0.23904041  0.65034728  0.33978855    -0.02000
C500        C  0.22243489  0.63762989  0.31432180    -0.02000
C501        C  0.25036253  0.63545708  0.28711492     0.08000
C502        C  0.29588235  0.64608219  0.28644752    -0.02200
Br503      Br  0.33459635  0.64435550  0.25010534    -0.00700
Br504      Br  0.36822613  0.67798481  0.30909500    -0.00800
Br505      Br  0.15585759  0.62749937  0.31656338    -0.00700
Br506      Br  0.20177199  0.65146433  0.37687937    -0.00700
C507        C  0.25634419  0.77138885  0.29670646    -0.01900
C508        C  0.26264695  0.78135920  0.32590031     0.07800
C509        C  0.28125943  0.80527962  0.32970018    -0.02000
C510        C  0.29751643  0.81791221  0.30465866    -0.02000
C511        C  0.29190586  0.80797629  0.27502952     0.08000
C512        C  0.27167884  0.78420317  0.27150787    -0.02200
Br513      Br  0.27316657  0.76572647  0.23318444    -0.00700
Br514      Br  0.23094367  0.73838778  0.29174950    -0.00800
Br515      Br  0.33971439  0.84375246  0.31258185    -0.00700
Br516      Br  0.28989049  0.81877411  0.36995294    -0.00700
C517        C  0.11718686  0.69093623  0.47718545    -0.01900
C518        C  0.16603212  0.68040128  0.46283483     0.07800
C519        C  0.19308483  0.65197292  0.46560171    -0.02000
C520        C  0.17044464  0.63398815  0.48177408    -0.02000
C521        C  0.12370486  0.64488070  0.49853008     0.08000
C522        C  0.09828534  0.67379989  0.49676102    -0.02200
Br523      Br  0.04527617  0.69156851  0.52498092    -0.00700
Br524      Br  0.07782972  0.72937460  0.47123186    -0.00800
Br525      Br  0.20568202  0.59443715  0.48171010    -0.00700
Br526      Br  0.26384009  0.63819246  0.44974907    -0.00700
C527        C  0.51128637  0.62980416  0.47470020    -0.01900
C528        C  0.51258879  0.63165085  0.50652702     0.07800
C529        C  0.46835449  0.64968603  0.52052144    -0.02000
C530        C  0.42673706  0.66762638  0.50327329    -0.02000
C531        C  0.42589006  0.66622673  0.47134732     0.08000
C532        C  0.46793466  0.64651621  0.45729050    -0.02200
Br533      Br  0.46670156  0.64186291  0.41410909    -0.00700
Br534      Br  0.56882968  0.60416256  0.45448889    -0.00800
Br535      Br  0.37547631  0.69672786  0.52437718    -0.00700
Br536      Br  0.96720650  0.65323730  0.56354339    -0.00700
C537        C  0.02819781  0.58724961  0.09285748    -0.01900
C538        C  0.03449745  0.58550445  0.06113892     0.07800
C539        C  0.02076680  0.56334686  0.04548444    -0.02000
C540        C  0.00611033  0.54213300  0.06142985    -0.02000
C541        C  0.00339696  0.54325663  0.09298325     0.08000
C542        C  0.01098997  0.56676353  0.10834343    -0.02200
Br543      Br  0.00327603  0.56924611  0.15144472    -0.00700
Br544      Br  0.05028244  0.61535695  0.11654426    -0.00800
Br545      Br  0.49379768  0.01013989  0.04052830    -0.00700
Br546      Br  0.02943619  0.55931984  0.00286301    -0.00700
C547        C  0.11706991  0.82574404  0.44179248    -0.01900
C548        C  0.13695976  0.80195078  0.45985511     0.07800
C549        C  0.11324155  0.80007870  0.48763906    -0.02000
C550        C  0.06481437  0.81962832  0.49481537    -0.02000
C551        C  0.04177684  0.84192215  0.47515493     0.08000
C552        C  0.07060563  0.84615015  0.44987131    -0.02200
Br553      Br  0.04350529  0.87819527  0.42397029    -0.00700
Br554      Br  0.15266756  0.82986040  0.40534648    -0.00800
Br555      Br  0.02922713  0.81535493  0.03091638    -0.00700
Br556      Br  0.14590574  0.77038474  0.51548057    -0.00700
C557        C  0.37513656  0.83488627  0.46675362    -0.01900
C558        C  0.42399747  0.83591330  0.45369776     0.07800
C559        C  0.44922829  0.81373720  0.43460311    -0.02000
C560        C  0.43075829  0.78954291  0.43203666    -0.02000
C561        C  0.38321828  0.78818739  0.44592242     0.08000
C562        C  0.35520404  0.81125006  0.46297522    -0.02200
Br563      Br  0.28700292  0.81184148  0.47981130    -0.00700
Br564      Br  0.33091268  0.86656091  0.98769632    -0.00800
Br565      Br  0.47212998  0.75795796  0.40970682    -0.00700
Br566      Br  0.00125986  0.81805026  0.40662780    -0.00700
C567        C  0.47326888  0.89123422  0.04625384    -0.01900
C568        C  0.00126833  0.89383178  0.02014477     0.07800
C569        C  0.04169901  0.90805037  0.02221655    -0.02000
C570        C  0.05169141  0.92092740  0.04947600    -0.02000
C571        C  0.02045646  0.92013824  0.07476751     0.08000
C572        C  0.48307068  0.90408468  0.07337203    -0.02200
Br573      Br  0.44457845  0.89980474  0.10878044    -0.00700
Br574      Br  0.41795513  0.87198543  0.04486872    -0.00800
Br575      Br  0.10535753  0.94146183  0.05114725    -0.00700
Br576      Br  0.08125838  0.91154672  0.98730675    -0.00700
N577        N  0.98859871  0.85976924  0.97971581    -0.03500
C578        C  0.98099470  0.88625140  0.49027855    -0.00900
C579        C  0.43721417  0.90386618  0.47563973    -0.23800
C580        C  0.41645216  0.88769499  0.45591805    -0.24000
C581        C  0.44679793  0.86039620  0.95983238    -0.01000
H582        H  0.41921863  0.92551079  0.48087717     0.12800
H583        H  0.37912248  0.89463525  0.44294073     0.12800
N584        N  0.06187718  0.61935430  0.02390657    -0.03500
C585        C  0.07088185  0.60069480  0.54744790    -0.00900
C586        C  0.12281235  0.59632973  0.55882546    -0.23800
C587        C  0.14629920  0.61303835  0.54309658    -0.24000
C588        C  0.10911743  0.62661724  0.02154782    -0.01000
H589        H  0.14155599  0.58250693  0.57704582     0.12800
H590        H  0.18690698  0.61467609  0.54655705     0.12800
Fe591      Fe  0.34287424  0.72060091  0.89468654     1.65800
Fe592      Fe  0.20743922  0.73502536  0.89548644     1.73200
Fe593      Fe  0.28004569  0.73162981  0.96105882     1.54400
O594        O  0.33633749  0.69391830  0.96463212    -0.81700
O595        O  0.16733610  0.76663524  0.92377071    -0.80000
O596        O  0.39116312  0.69576463  0.92839418    -0.84200
O597        O  0.36042482  0.75548274  0.91250066    -0.79000
O598        O  0.22344723  0.70971893  0.96661754    -0.80800
O599        O  0.22275399  0.76513963  0.86752084    -0.83600
C600        C  0.35938396  0.76446891  0.93935132     0.97200
C601        C  0.38201710  0.68612060  0.95345974     1.04600
O602        O  0.27642738  0.72913771  0.91716536    -1.12500
O603        O  0.23892120  0.70395246  0.86456096    -0.75000
O604        O  0.32653201  0.68578346  0.87447275    -0.78500
O605        O  0.33762486  0.75439598  0.96031886    -0.79200
C606        C  0.28284503  0.68544453  0.86053981     0.96100
O607        O  0.30794528  0.74465826  0.85772625    -0.77100
O608        O  0.18586557  0.70547891  0.92143734    -0.82300
C609        C  0.17814078  0.77787601  0.94812793     0.98700
C610        C  0.19309040  0.69977018  0.94933926     1.04600
O611        O  0.22189729  0.76890771  0.96292812    -0.76500
C612        C  0.26401673  0.76282052  0.85200217     1.02900
N613        N  0.31300637  0.84307548  0.73798952    -0.03500
C614        C  0.32100999  0.81683333  0.74980676    -0.00900
C615        C  0.36977865  0.80002186  0.74104418    -0.23800
C616        C  0.39284301  0.81608321  0.72373758    -0.24000
C617        C  0.35838859  0.84263976  0.72287904    -0.01000
H618        H  0.38845413  0.77891811  0.74841675     0.12800
H619        H  0.43305840  0.80981787  0.71535184     0.12800
N620        N  0.23337780  0.60073339  0.74809897    -0.03500
C621        C  0.22491879  0.62731009  0.75889927    -0.00900
C622        C  0.17438487  0.64301310  0.74935267    -0.23800
C623        C  0.15010516  0.62549239  0.73375185    -0.24000
C624        C  0.18676925  0.59971562  0.73347316    -0.01000
H625        H  0.15474312  0.66403725  0.75633795     0.12800
H626        H  0.10889577  0.63050927  0.72538153     0.12800
Fe627      Fe  0.44775381  0.98101883  0.64431326     1.65800
Fe628      Fe  0.08442235  0.96739269  0.64394422     1.73200
Fe629      Fe  0.01991453  0.97386221  0.71072477     1.54400
O630        O  0.45492102  0.50795664  0.71579373    -0.81700
O631        O  0.12644599  0.93391904  0.67012446    -0.80000
O632        O  0.40394767  0.50924211  0.67477835    -0.84200
O633        O  0.43095205  0.94782486  0.66644183    -0.79000
O634        O  0.06677684  0.50170276  0.71230458    -0.80800
O635        O  0.06518301  0.93913502  0.61409344    -0.83600
C636        C  0.44119338  0.93772338  0.69294186     0.97200
C637        C  0.41187107  0.51805789  0.70085824     1.04600
O638        O  0.01746162  0.97394261  0.66637952    -1.12500
O639        O  0.05068119  0.50079319  0.61530630    -0.75000
O640        O  0.46182576  0.51449474  0.62116550    -0.78500
O641        O  0.47110864  0.94657863  0.71184464    -0.79200
C642        C  0.00479657  0.51782670  0.61050803     0.96100
O643        O  0.47673293  0.95433605  0.60922505    -0.77100
O644        O  0.11346661  0.49454087  0.67075354    -0.82300
C645        C  0.12440328  0.92719649  0.69743845     0.98700
C646        C  0.10190496  0.50688150  0.69566044     1.04600
O647        O  0.08724668  0.93997381  0.71437673    -0.77900
C648        C  0.02118549  0.93878519  0.60102731     1.02900
C649        C  0.35416067  0.53900037  0.74459538    -0.01900
C650        C  0.36924432  0.54087530  0.71444563     0.07800
C651        C  0.34352171  0.56491124  0.69748503    -0.02000
C652        C  0.30305450  0.58627177  0.71022802    -0.02000
C653        C  0.28455916  0.58305063  0.73915272     0.08000
C654        C  0.31222635  0.56012927  0.75682146    -0.02200
Br655      Br  0.29406321  0.55854898  0.79817844    -0.00700
Br656      Br  0.38709776  0.00642883  0.76866751    -0.00800
Br657      Br  0.27490589  0.62085371  0.68856771    -0.00700
Br658      Br  0.36263844  0.56898281  0.65650887    -0.00700
C659        C  0.13480103  0.53497804  0.73624481    -0.01900
C660        C  0.12943238  0.52868153  0.70530730     0.07800
C661        C  0.14768903  0.54474989  0.68371162    -0.02000
C662        C  0.16624779  0.56785978  0.69289932    -0.02000
C663        C  0.17211100  0.57380249  0.72366213     0.08000
C664        C  0.15635042  0.55709075  0.74513242    -0.02200
Br665      Br  0.15846426  0.56585804  0.78715637    -0.00700
Br666      Br  0.11298117  0.51387491  0.76764002    -0.00800
Br667      Br  0.17860300  0.59277673  0.66276681    -0.00700
Br668      Br  0.14640611  0.53676224  0.64097638    -0.00700
C669        C  0.42214180  0.87253356  0.73208827    -0.01900
C670        C  0.37767965  0.86768779  0.71560009     0.07800
C671        C  0.35420445  0.88617159  0.69205993    -0.02000
C672        C  0.37080694  0.91058168  0.68728267    -0.02000
C673        C  0.41811184  0.91427016  0.70187473     0.08000
C674        C  0.44416205  0.89448426  0.72412652    -0.02200
Br675      Br  0.51196901  0.89551463  0.74324519    -0.00700
Br676      Br  0.45361287  0.84927370  0.76621729    -0.00800
Br677      Br  0.32465767  0.93965643  0.66262137    -0.00700
Br678      Br  0.30469122  0.87670687  0.66335074    -0.00700
C679        C  0.18008816  0.87727942  0.69882684    -0.01900
C680        C  0.16898699  0.90450064  0.71051223     0.07800
C681        C  0.20407631  0.91083376  0.73277183    -0.02000
C682        C  0.25016262  0.89036396  0.74299671    -0.02000
C683        C  0.26151640  0.86292404  0.73152691     0.08000
C684        C  0.22610805  0.85669140  0.70907281    -0.02200
Br685      Br  0.24577832  0.82193853  0.68755128    -0.00700
Br686      Br  0.13350520  0.86869244  0.66747847    -0.00800
Br687      Br  0.30008347  0.90125118  0.77033758    -0.00700
Br688      Br  0.19232767  0.94851506  0.74709441    -0.00700
C689        C  0.31066665  0.66027411  0.81174148    -0.01900
C690        C  0.28071194  0.66342978  0.83809612     0.07800
C691        C  0.23903964  0.65034766  0.83978805    -0.02000
C692        C  0.22243484  0.63763023  0.81432111    -0.02000
C693        C  0.25036379  0.63545698  0.78711467     0.08000
C694        C  0.29588404  0.64608175  0.78644781    -0.02200
Br695      Br  0.33459940  0.64435462  0.75010601    -0.00700
Br696      Br  0.36822837  0.67798355  0.80909630    -0.00800
Br697      Br  0.15585693  0.62750017  0.81656162    -0.00700
Br698      Br  0.20176978  0.65146509  0.87687842    -0.00700
C699        C  0.25634423  0.77138855  0.79670670    -0.01900
C700        C  0.26264666  0.78135902  0.82590054     0.07800
C701        C  0.28125777  0.80527987  0.82970036    -0.02000
C702        C  0.29751375  0.81791280  0.80465876    -0.02000
C703        C  0.29190395  0.80797664  0.77502965     0.08000
C704        C  0.27167795  0.78420318  0.77150807    -0.02200
Br705      Br  0.27316562  0.76572662  0.73318460    -0.00700
Br706      Br  0.23094553  0.73838692  0.79174973    -0.00800
Br707      Br  0.33970927  0.84375413  0.81258185    -0.00700
Br708      Br  0.28988863  0.81877447  0.86995312    -0.00700
C709        C  0.11718664  0.69093592  0.97718553    -0.01900
C710        C  0.16603154  0.68040109  0.96283453     0.07800
C711        C  0.19308402  0.65197266  0.96560076    -0.02000
C712        C  0.17044379  0.63398768  0.98177276    -0.02000
C713        C  0.12370455  0.64488007  0.99852924     0.08000
C714        C  0.09828548  0.67379933  0.99676097    -0.02200
Br715      Br  0.04527769  0.69156753  0.02498180    -0.00700
Br716      Br  0.07782938  0.72937435  0.97123251    -0.00800
Br717      Br  0.20568054  0.59443664  0.98170781    -0.00700
Br718      Br  0.26383915  0.63819240  0.94974790    -0.00700
C719        C  0.51128644  0.62980400  0.97470021    -0.01900
C720        C  0.51258940  0.63165090  0.00652700     0.07800
C721        C  0.46835561  0.64968647  0.02052149    -0.02000
C722        C  0.42673865  0.66762722  0.00327340    -0.02000
C723        C  0.42589053  0.66622693  0.97134750     0.08000
C724        C  0.46793438  0.64651595  0.95729066    -0.02200
Br725      Br  0.46669968  0.64186184  0.91410944    -0.00700
Br726      Br  0.56882932  0.60416213  0.95448883    -0.00800
Br727      Br  0.37548033  0.69673013  0.02437696    -0.00700
Br728      Br  0.96720584  0.65323669  0.06354296    -0.00700
C729        C  0.02819716  0.58725004  0.59285807    -0.01900
C730        C  0.03449801  0.58550483  0.56113959     0.07800
C731        C  0.02076841  0.56334705  0.54548486    -0.02000
C732        C  0.00611126  0.54213322  0.56142996    -0.02000
C733        C  0.00339659  0.54325694  0.59298330     0.08000
C734        C  0.01098888  0.56676390  0.60834368    -0.02200
Br735      Br  0.00327342  0.56924648  0.65144490    -0.00700
Br736      Br  0.05028056  0.61535750  0.61654533    -0.00800
Br737      Br  0.49380186  0.01013901  0.54052829    -0.00700
Br738      Br  0.02944048  0.55931961  0.50286365    -0.00700
C739        C  0.11707057  0.82574414  0.94179267    -0.01900
C740        C  0.13695979  0.80195081  0.95985532     0.07800
C741        C  0.11324118  0.80007885  0.98763917    -0.02000
C742        C  0.06481404  0.81962860  0.99481528    -0.02000
C743        C  0.04177703  0.84192244  0.97515475     0.08000
C744        C  0.07060630  0.84615035  0.94987131    -0.02200
Br745      Br  0.04350632  0.87819543  0.92397021    -0.00700
Br746      Br  0.15266930  0.82986055  0.90534710    -0.00800
Br747      Br  0.02922827  0.81535449  0.53091667    -0.00700
Br748      Br  0.14590465  0.77038483  0.01548078    -0.00700
C749        C  0.37513632  0.83488593  0.96675443    -0.01900
C750        C  0.42399750  0.83591276  0.95369875     0.07800
C751        C  0.44922844  0.81373658  0.93460421    -0.02000
C752        C  0.43075825  0.78954238  0.93203773    -0.02000
C753        C  0.38321766  0.78818719  0.94592302     0.08000
C754        C  0.35520316  0.81125000  0.96297552    -0.02200
Br755      Br  0.28700084  0.81184204  0.97981038    -0.00700
Br756      Br  0.33091208  0.86656142  0.48769481    -0.00800
Br757      Br  0.47213042  0.75795709  0.90970859    -0.00700
Br758      Br  0.00126129  0.81805024  0.90662754    -0.00700
C759        C  0.47326828  0.89123479  0.54625314    -0.01900
C760        C  0.00126835  0.89383141  0.52014516     0.07800
C761        C  0.04169909  0.90804995  0.52221688    -0.02000
C762        C  0.05169117  0.92092727  0.54947617    -0.02000
C763        C  0.02045586  0.92013839  0.57476760     0.08000
C764        C  0.48307043  0.90408493  0.57337147    -0.02200
Br765      Br  0.44457717  0.89980534  0.60877955    -0.00700
Br766      Br  0.41795296  0.87198703  0.54486753    -0.00800
Br767      Br  0.10535749  0.94146160  0.55114725    -0.00700
Br768      Br  0.08125895  0.91154591  0.48730718    -0.00700
N769        N  0.48857026  0.35977384  0.47972845    -0.03500
C770        C  0.48096848  0.38625443  0.99029685    -0.00900
C771        C  0.93718049  0.40387145  0.97566597    -0.23800
C772        C  0.91641291  0.38770346  0.95594320    -0.24000
C773        C  0.94676348  0.36040459  0.45984881    -0.01000
H774        H  0.91918649  0.42551483  0.98090874     0.12800
H775        H  0.87907738  0.39464525  0.94297104     0.12800
N776        N  0.56185164  0.11935483  0.52389919    -0.03500
C777        C  0.57087028  0.10069177  0.04743767    -0.00900
C778        C  0.62280414  0.09632877  0.05880900    -0.23800
C779        C  0.64627942  0.11304150  0.04307887    -0.24000
C780        C  0.60908668  0.12662274  0.52153659    -0.01000
H781        H  0.64155749  0.08250483  0.07702654     0.12800
H782        H  0.68688658  0.11468155  0.04653507     0.12800
Fe783      Fe  0.84284707  0.22060546  0.39468634     1.65800
Fe784      Fe  0.70741045  0.23503747  0.39548394     1.73200
Fe785      Fe  0.78001611  0.23163853  0.46105748     1.54400
O786        O  0.83630323  0.19392524  0.46463275    -0.81700
O787        O  0.66731074  0.26664827  0.42376793    -0.80000
O788        O  0.89113096  0.19576702  0.42839507    -0.84200
O789        O  0.86040495  0.25548637  0.41249990    -0.79000
O790        O  0.72341125  0.20973091  0.46661553    -0.80800
O791        O  0.72273442  0.26514966  0.36751857    -0.83600
C792        C  0.85936140  0.26447446  0.43934991     0.97200
C793        C  0.88198230  0.18612347  0.45346048     1.04600
O794        O  0.77639873  0.22914618  0.41716402    -1.12500
O795        O  0.73888701  0.20396305  0.36455874    -0.75000
O796        O  0.82649602  0.18578971  0.37447269    -0.78500
O797        O  0.83760067  0.25440199  0.46031725    -0.79200
C798        C  0.78280858  0.18545318  0.36053851     0.96100
O799        O  0.80792422  0.24466350  0.35772503    -0.77100
O800        O  0.68582806  0.20549386  0.42143479    -0.82300
C801        C  0.67811497  0.27788683  0.44812661     0.98700
C802        C  0.69305085  0.19978479  0.44933674     1.04600
O803        O  0.72187148  0.26891770  0.46292650    -0.76500
C804        C  0.76399874  0.26282804  0.35200045     1.02900
N805        N  0.81299881  0.34308843  0.23799400    -0.03500
C806        C  0.82100317  0.31684594  0.24981074    -0.00900
C807        C  0.86977425  0.30003558  0.24105015    -0.23800
C808        C  0.89283933  0.31609776  0.22374526    -0.24000
C809        C  0.85838283  0.34265368  0.22288569    -0.01000
H810        H  0.88845051  0.27893211  0.24842306     0.12800
H811        H  0.93305601  0.30983339  0.21536126     0.12800
N812        N  0.73338703  0.10072262  0.24810207    -0.03500
C813        C  0.72491372  0.12730200  0.25889727    -0.00900
C814        C  0.67437749  0.14299820  0.24934605    -0.23800
C815        C  0.65010989  0.12547080  0.23374838    -0.24000
C816        C  0.68678338  0.09969679  0.23347583    -0.01000
H817        H  0.65472591  0.16402258  0.25632665     0.12800
H818        H  0.60890222  0.13048164  0.22537565     0.12800
Fe819      Fe  0.94774878  0.48102620  0.14431294     1.65800
Fe820      Fe  0.58441629  0.46740670  0.14394384     1.73200
Fe821      Fe  0.51990788  0.47387707  0.21072392     1.54400
O822        O  0.95493018  0.00794340  0.21579788    -0.81700
O823        O  0.62644760  0.43393778  0.17012798    -0.80000
O824        O  0.90395699  0.00923453  0.17478153    -0.84200
O825        O  0.93095158  0.44783330  0.16644366    -0.79000
O826        O  0.56678790  0.00168648  0.21230922    -0.80800
O827        O  0.56518389  0.43914331  0.11409923    -0.83600
C828        C  0.94119118  0.43773426  0.19294452     0.97200
C829        C  0.91188148  0.01804798  0.20086249     1.04600
O830        O  0.51745567  0.47395459  0.16637910    -1.12500
O831        O  0.55069258  0.00078466  0.11531081    -0.75000
O832        O  0.96183712  0.01448747  0.12116795    -0.78500
O833        O  0.97110480  0.44659129  0.21184689    -0.79200
C834        C  0.50480896  0.01781886  0.11051125     0.96100
O835        O  0.97673326  0.45434040  0.10922854    -0.77100
O836        O  0.61348059  0.99452118  0.17075929    -0.82300
C837        C  0.62440327  0.42721462  0.19744160     0.98700
C838        C  0.60192055  0.00686215  0.19566632     1.04600
O839        O  0.58724333  0.43999034  0.21437872    -0.77900
C840        C  0.52118776  0.43878975  0.10103413     1.02900
C841        C  0.85417673  0.03899402  0.24460147    -0.01900
C842        C  0.86925806  0.04086711  0.21445084     0.07800
C843        C  0.84353716  0.06490346  0.19749028    -0.02000
C844        C  0.80306776  0.08626380  0.21023234    -0.02000
C845        C  0.78457420  0.08304404  0.23915794     0.08000
C846        C  0.81224664  0.06012498  0.25682832    -0.02200
Br847      Br  0.79410001  0.05855241  0.29818921    -0.00700
Br848      Br  0.88708502  0.50643578  0.26866116    -0.00800
Br849      Br  0.77491198  0.12084328  0.18856886    -0.00700
Br850      Br  0.86266102  0.06897611  0.15651564    -0.00700
C851        C  0.63482594  0.03495622  0.23625121    -0.01900
C852        C  0.62945450  0.02865967  0.20531369     0.07800
C853        C  0.64771441  0.04472624  0.18371759    -0.02000
C854        C  0.66627354  0.06783616  0.19290435    -0.02000
C855        C  0.67213861  0.07377946  0.22366685     0.08000
C856        C  0.65638268  0.05706688  0.24513815    -0.02200
Br857      Br  0.65851558  0.06583033  0.28716284    -0.00700
Br858      Br  0.61299517  0.01385798  0.26764687    -0.00800
Br859      Br  0.67862549  0.09275282  0.16277056    -0.00700
Br860      Br  0.64643175  0.03673766  0.14098244    -0.00700
C861        C  0.92213305  0.37254877  0.23209558    -0.01900
C862        C  0.87767222  0.36770213  0.21560681     0.07800
C863        C  0.85420027  0.38618390  0.19206441    -0.02000
C864        C  0.87080424  0.41059320  0.18728547    -0.02000
C865        C  0.91810812  0.41428223  0.20187848     0.08000
C866        C  0.94415622  0.39449772  0.22413173    -0.02200
Br867      Br  0.01196647  0.39552632  0.24324738    -0.00700
Br868      Br  0.95359888  0.34929239  0.26622784    -0.00800
Br869      Br  0.82466068  0.43966496  0.16261793    -0.00700
Br870      Br  0.80469132  0.37671683  0.16335417    -0.00700
C871        C  0.68008506  0.37729718  0.19882902    -0.01900
C872        C  0.66898607  0.40451806  0.21051531     0.07800
C873        C  0.70407514  0.41084931  0.23277626    -0.02000
C874        C  0.75015751  0.39037750  0.24300271    -0.02000
C875        C  0.76150948  0.36293797  0.23153174     0.08000
C876        C  0.72610174  0.35670745  0.20907594    -0.02200
Br877      Br  0.74576865  0.32195472  0.18755410    -0.00700
Br878      Br  0.63350479  0.36871339  0.16747705    -0.00800
Br879      Br  0.80007544  0.40126066  0.27034883    -0.00700
Br880      Br  0.69233275  0.44853065  0.24709785    -0.00700
C881        C  0.81063000  0.16028633  0.31173878    -0.01900
C882        C  0.78067458  0.16343974  0.33809304     0.07800
C883        C  0.73900539  0.15035497  0.33978382    -0.02000
C884        C  0.72241199  0.13763135  0.31431760    -0.02000
C885        C  0.75034603  0.13545757  0.28711267     0.08000
C886        C  0.79585618  0.14609043  0.28644561    -0.02200
Br887      Br  0.83456694  0.14437051  0.25010310    -0.00700
Br888      Br  0.86817922  0.17800468  0.30909275    -0.00800
Br889      Br  0.65584304  0.12749117  0.31655585    -0.00700
Br890      Br  0.70172661  0.15147516  0.37687163    -0.00700
C891        C  0.75633482  0.27139813  0.29670482    -0.01900
C892        C  0.76263468  0.28136702  0.32589973     0.07800
C893        C  0.78124691  0.30528728  0.32970213    -0.02000
C894        C  0.79750556  0.31792137  0.30466223    -0.02000
C895        C  0.79189585  0.30798768  0.27503201     0.08000
C896        C  0.77167058  0.28421422  0.27150783    -0.02200
Br897      Br  0.77316316  0.26573934  0.23318307    -0.00700
Br898      Br  0.73093473  0.23839736  0.29174395    -0.00800
Br899      Br  0.83970538  0.34376007  0.31258905    -0.00700
Br900      Br  0.78987486  0.31877970  0.36995615    -0.00700
C901        C  0.61714149  0.19094615  0.47717675    -0.01900
C902        C  0.66599191  0.18041461  0.46282994     0.07800
C903        C  0.69304702  0.15198660  0.46559436    -0.02000
C904        C  0.67040544  0.13399882  0.48176071    -0.02000
C905        C  0.62366410  0.14488795  0.49851663     0.08000
C906        C  0.59823918  0.17380679  0.49674868    -0.02200
Br907      Br  0.54521655  0.19157072  0.52496359    -0.00700
Br908      Br  0.57777634  0.22938302  0.47122163    -0.00800
Br909      Br  0.70564279  0.09444800  0.48168802    -0.00700
Br910      Br  0.76380713  0.13821058  0.44974639    -0.00700
C911        C  0.01125300  0.12980411  0.47469515    -0.01900
C912        C  0.01255825  0.13164700  0.50652203     0.07800
C913        C  0.96831982  0.14967604  0.52051932    -0.02000
C914        C  0.92669545  0.16761558  0.50327402    -0.02000
C915        C  0.92585223  0.16622467  0.47134710     0.08000
C916        C  0.96790033  0.14651815  0.45728767    -0.02200
Br917      Br  0.96667193  0.14187221  0.41410521    -0.00700
Br918      Br  0.06879408  0.10416378  0.45448098    -0.00800
Br919      Br  0.87541716  0.19670277  0.52438563    -0.00700
Br920      Br  0.46717523  0.15322122  0.56354192    -0.00700
C921        C  0.52820834  0.08724245  0.09285422    -0.01900
C922        C  0.53449730  0.08549816  0.06113474     0.07800
C923        C  0.52076861  0.06333871  0.04548293    -0.02000
C924        C  0.50611917  0.04212398  0.06143100    -0.02000
C925        C  0.50341147  0.04324822  0.09298484     0.08000
C926        C  0.51100779  0.06675541  0.10834310    -0.02200
Br927      Br  0.50330494  0.06923817  0.15144514    -0.00700
Br928      Br  0.55029633  0.11535108  0.11653730    -0.00800
Br929      Br  0.99378642  0.51015084  0.04052445    -0.00700
Br930      Br  0.52943166  0.05931125  0.00286095    -0.00700
C931        C  0.61704226  0.32575533  0.44180086    -0.01900
C932        C  0.63693139  0.30195827  0.45985768     0.07800
C933        C  0.61320749  0.30007782  0.48763769    -0.02000
C934        C  0.56477778  0.31962436  0.49481566    -0.02000
C935        C  0.54174565  0.34192545  0.47516296     0.08000
C936        C  0.57057578  0.34615876  0.44988198    -0.02200
Br937      Br  0.54347467  0.37820796  0.42398680    -0.00700
Br938      Br  0.65264926  0.32988197  0.40536158    -0.00800
Br939      Br  0.52918095  0.31533335  0.03090769    -0.00700
Br940      Br  0.64586936  0.27037692  0.51547195    -0.00700
C941        C  0.87511646  0.33488663  0.46677289    -0.01900
C942        C  0.92396585  0.33592147  0.45370962     0.07800
C943        C  0.94918614  0.31375472  0.43460152    -0.02000
C944        C  0.93072058  0.28955924  0.43202897    -0.02000
C945        C  0.88319096  0.28819511  0.44592168     0.08000
C946        C  0.85518333  0.31125146  0.46298616    -0.02200
Br947      Br  0.78698855  0.31183782  0.47982716    -0.00700
Br948      Br  0.83091070  0.36655145  0.98773788    -0.00800
Br949      Br  0.97208766  0.25798508  0.40968256    -0.00700
Br950      Br  0.50120048  0.31808331  0.40662035    -0.00700
C951        C  0.97328530  0.39122462  0.04627542    -0.01900
C952        C  0.50126006  0.39383179  0.02015992     0.07800
C953        C  0.54167211  0.40806324  0.02222216    -0.02000
C954        C  0.55167267  0.42094023  0.04947966    -0.02000
C955        C  0.52046303  0.42013932  0.07477836     0.08000
C956        C  0.98309817  0.40407391  0.07339232    -0.02200
Br957      Br  0.94464492  0.39978066  0.10881173    -0.00700
Br958      Br  0.91797824  0.37197150  0.04490119    -0.00800
Br959      Br  0.60531134  0.44149190  0.05113982    -0.00700
Br960      Br  0.58118680  0.41158257  0.98730174    -0.00700
N961        N  0.48857026  0.35977354  0.97972957    -0.03500
C962        C  0.48096894  0.38625469  0.49029584    -0.00900
C963        C  0.93718068  0.40387094  0.47566691    -0.23800
C964        C  0.91641263  0.38770303  0.45594427    -0.24000
C965        C  0.94676352  0.36040504  0.95984790    -0.01000
H966        H  0.91918656  0.42551445  0.48090981     0.12800
H967        H  0.87907717  0.39464475  0.44297238     0.12800
N968        N  0.56185231  0.11935452  0.02389892    -0.03500
C969        C  0.57086964  0.10069252  0.54743834    -0.00900
C970        C  0.62280292  0.09633054  0.55881035    -0.23800
C971        C  0.64627754  0.11304349  0.54308021    -0.24000
C972        C  0.60908795  0.12662167  0.02153593    -0.01000
H973        H  0.64155614  0.08250713  0.57702822     0.12800
H974        H  0.68688470  0.11468418  0.54653681     0.12800
Fe975      Fe  0.84284607  0.22060562  0.89468603     1.65800
Fe976      Fe  0.70740950  0.23503810  0.89548425     1.73200
Fe977      Fe  0.78001609  0.23163908  0.96105748     1.54400
O978        O  0.83630318  0.19392582  0.96463276    -0.81700
O979        O  0.66731035  0.26664893  0.92376833    -0.80000
O980        O  0.89113031  0.19576718  0.92839462    -0.84200
O981        O  0.86040474  0.25548651  0.91249933    -0.79000
O982        O  0.72341117  0.20973153  0.96661587    -0.80800
O983        O  0.72273354  0.26515025  0.86751874    -0.83600
C984        C  0.85936122  0.26447487  0.93934926     0.97200
C985        C  0.88198199  0.18612386  0.95346022     1.04600
O986        O  0.77639810  0.22914659  0.91716405    -1.12500
O987        O  0.73888518  0.20396363  0.86455892    -0.75000
O988        O  0.82649410  0.18578990  0.87447262    -0.78500
O989        O  0.83760059  0.25440259  0.96031679    -0.79200
C990        C  0.78280641  0.18545354  0.86053856     0.96100
O991        O  0.80792294  0.24466366  0.85772476    -0.77100
O992        O  0.68582718  0.20549461  0.92143533    -0.82300
C993        C  0.67811507  0.27788745  0.94812693     0.98700
C994        C  0.69305034  0.19978552  0.94933726     1.04600
O995        O  0.72187170  0.26891822  0.96292662    -0.76500
C996        C  0.76399769  0.26282845  0.85200041     1.02900
N997        N  0.81299996  0.34308816  0.73799394    -0.03500
C998        C  0.82100419  0.31684577  0.74981083    -0.00900
C999        C  0.86977535  0.30003536  0.74105038    -0.23800
C1000       C  0.89284048  0.31609752  0.72374544    -0.24000
C1001       C  0.85838404  0.34265345  0.72288570    -0.01000
H1002       H  0.88845146  0.27893193  0.74842335     0.12800
H1003       H  0.93305736  0.30983306  0.71536143     0.12800
N1004       N  0.73338606  0.10072314  0.74810140    -0.03500
C1005       C  0.72491246  0.12730262  0.75889637    -0.00900
C1006       C  0.67437666  0.14299884  0.74934442    -0.23800
C1007       C  0.65010950  0.12547134  0.73374663    -0.24000
C1008       C  0.68678280  0.09969728  0.73347473    -0.01000
H1009       H  0.65472493  0.16402331  0.75632461     0.12800
H1010       H  0.60890204  0.13048219  0.72537335     0.12800
Fe1011     Fe  0.94774818  0.48102646  0.64431291     1.65800
Fe1012     Fe  0.58441724  0.46740601  0.64394357     1.73200
Fe1013     Fe  0.51990894  0.47387615  0.71072375     1.54400
O1014       O  0.95492961  0.00794400  0.71579755    -0.81700
O1015       O  0.62644893  0.43393729  0.67012791    -0.80000
O1016       O  0.90395636  0.00923487  0.67478127    -0.84200
O1017       O  0.93095108  0.44783357  0.66644376    -0.79000
O1018       O  0.56678906  0.00168595  0.71230938    -0.80800
O1019       O  0.56518495  0.43914239  0.61409911    -0.83600
C1020       C  0.94119071  0.43773464  0.69294465     0.97200
C1021       C  0.91188090  0.01804850  0.70086214     1.04600
O1022       O  0.51745671  0.47395381  0.66637891    -1.12500
O1023       O  0.55069357  0.00078410  0.61531074    -0.75000
O1024       O  0.96183660  0.01448773  0.62116771    -0.78500
O1025       O  0.97110404  0.44659184  0.71184706    -0.79200
C1026       C  0.50480995  0.01781839  0.61051132     0.96100
O1027       O  0.97673273  0.45434054  0.60922868    -0.77100
O1028       O  0.61348122  0.99452089  0.67075923    -0.82300
C1029       C  0.62440429  0.42721391  0.69744142     0.98700
C1030       C  0.60192124  0.00686185  0.69566628     1.04600
O1031       O  0.58724402  0.43998935  0.71437846    -0.77900
C1032       C  0.52118876  0.43878922  0.60103375     1.02900
C1033       C  0.85417617  0.03899474  0.74460104    -0.01900
C1034       C  0.86925744  0.04086769  0.71445038     0.07800
C1035       C  0.84353624  0.06490390  0.69748968    -0.02000
C1036       C  0.80306702  0.08626433  0.71023176    -0.02000
C1037       C  0.78457343  0.08304466  0.73915738     0.08000
C1038       C  0.81224593  0.06012566  0.75682781    -0.02200
Br1039     Br  0.79409942  0.05855321  0.79818874    -0.00700
Br1040     Br  0.88708447  0.50643655  0.76866091    -0.00800
Br1041     Br  0.77491152  0.12084386  0.68856834    -0.00700
Br1042     Br  0.86265892  0.06897610  0.65651472    -0.00700
C1043       C  0.63482646  0.03495639  0.73625080    -0.01900
C1044       C  0.62945472  0.02865968  0.70531335     0.07800
C1045       C  0.64771376  0.04472640  0.68371703    -0.02000
C1046       C  0.66627297  0.06783637  0.69290354    -0.02000
C1047       C  0.67213809  0.07377987  0.72366599     0.08000
C1048       C  0.65638251  0.05706736  0.74513749    -0.02200
Br1049     Br  0.65851491  0.06583134  0.78716211    -0.00700
Br1050     Br  0.61299697  0.01385796  0.76764667    -0.00800
Br1051     Br  0.67862580  0.09275257  0.66276946    -0.00700
Br1052     Br  0.64642953  0.03673801  0.64098190    -0.00700
C1053       C  0.92213454  0.37254856  0.73209523    -0.01900
C1054       C  0.87767322  0.36770202  0.71560684     0.07800
C1055       C  0.85420042  0.38618418  0.69206489    -0.02000
C1056       C  0.87080379  0.41059368  0.68728623    -0.02000
C1057       C  0.91810815  0.41428250  0.70187869     0.08000
C1058       C  0.94415728  0.39449764  0.72413131    -0.02200
Br1059     Br  0.01196853  0.39552589  0.74324580    -0.00700
Br1060     Br  0.95360197  0.34929188  0.76622695    -0.00800
Br1061     Br  0.82465899  0.43966599  0.66261990    -0.00700
Br1062     Br  0.80469196  0.37671737  0.66335431    -0.00700
C1063       C  0.68008682  0.37729666  0.69882832    -0.01900
C1064       C  0.66898699  0.40451735  0.71051518     0.07800
C1065       C  0.70407510  0.41084845  0.73277681    -0.02000
C1066       C  0.75015773  0.39037677  0.74300312    -0.02000
C1067       C  0.76151064  0.36293752  0.73153148     0.08000
C1068       C  0.72610377  0.35670706  0.70907512    -0.02200
Br1069     Br  0.74577255  0.32195490  0.68755228    -0.00700
Br1070     Br  0.63350720  0.36871295  0.66747591    -0.00800
Br1071     Br  0.80007501  0.40125977  0.77034989    -0.00700
Br1072     Br  0.69233106  0.44852943  0.74709965    -0.00700
C1073       C  0.81062860  0.16028596  0.81173918    -0.01900
C1074       C  0.78067174  0.16344020  0.83809295     0.07800
C1075       C  0.73900108  0.15035634  0.83978301    -0.02000
C1076       C  0.72240808  0.13763282  0.81431657    -0.02000
C1077       C  0.75034364  0.13545834  0.78711212     0.08000
C1078       C  0.79585493  0.14609028  0.78644576    -0.02200
Br1079     Br  0.83456785  0.14436924  0.75010383    -0.00700
Br1080     Br  0.86817974  0.17800299  0.80909404    -0.00800
Br1081     Br  0.65583798  0.12749361  0.81655380    -0.00700
Br1082     Br  0.70172011  0.15147742  0.87687015    -0.00700
C1083       C  0.75633304  0.27139909  0.79670477    -0.01900
C1084       C  0.76263393  0.28136756  0.82589978     0.07800
C1085       C  0.78124790  0.30528729  0.82970228    -0.02000
C1086       C  0.79750746  0.31792106  0.80466243    -0.02000
C1087       C  0.79189657  0.30798780  0.77503214     0.08000
C1088       C  0.77166925  0.28421505  0.77150779    -0.02200
Br1089     Br  0.77315913  0.26574098  0.73318267    -0.00700
Br1090     Br  0.73093104  0.23839896  0.79174370    -0.00800
Br1091     Br  0.83970989  0.34375857  0.81258926    -0.00700
Br1092     Br  0.78987644  0.31877946  0.86995634    -0.00700
C1093       C  0.61714259  0.19094648  0.97717863    -0.01900
C1094       C  0.66599183  0.18041517  0.96283056     0.07800
C1095       C  0.69304646  0.15198698  0.96559363    -0.02000
C1096       C  0.67040544  0.13399877  0.98175973    -0.02000
C1097       C  0.62366509  0.14488752  0.99851655     0.08000
C1098       C  0.59824095  0.17380652  0.99675014    -0.02200
Br1099     Br  0.54522088  0.19156956  0.02496678    -0.00700
Br1100     Br  0.57777766  0.22938363  0.97122541    -0.00800
Br1101     Br  0.70564217  0.09444785  0.98168532    -0.00700
Br1102     Br  0.76380540  0.13821117  0.94974410    -0.00700
C1103       C  0.01125194  0.12980388  0.97469462    -0.01900
C1104       C  0.01255749  0.13164675  0.00652150     0.07800
C1105       C  0.96831951  0.14967603  0.02051887    -0.02000
C1106       C  0.92669572  0.16761604  0.00327362    -0.02000
C1107       C  0.92585200  0.16622501  0.97134672     0.08000
C1108       C  0.96789945  0.14651818  0.95728721    -0.02200
Br1109     Br  0.96667030  0.14187216  0.91410474    -0.00700
Br1110     Br  0.06879230  0.10416329  0.95448027    -0.00800
Br1111     Br  0.87541926  0.19670407  0.02438522    -0.00700
Br1112     Br  0.46717589  0.15322106  0.06354204    -0.00700
C1113       C  0.52820754  0.08724254  0.59285461    -0.01900
C1114       C  0.53449739  0.08549826  0.56113517     0.07800
C1115       C  0.52077021  0.06333845  0.54548325    -0.02000
C1116       C  0.50612120  0.04212349  0.56143116    -0.02000
C1117       C  0.50341243  0.04324780  0.59298495     0.08000
C1118       C  0.51100745  0.06675522  0.60834331    -0.02200
Br1119     Br  0.50330380  0.06923792  0.65144532    -0.00700
Br1120     Br  0.55029360  0.11535163  0.61653795    -0.00800
Br1121     Br  0.99378862  0.51015087  0.54052425    -0.00700
Br1122     Br  0.52943488  0.05931081  0.50286139    -0.00700
C1123       C  0.61704204  0.32575588  0.94180139    -0.01900
C1124       C  0.63693191  0.30195890  0.95985821     0.07800
C1125       C  0.61320905  0.30007845  0.98763851    -0.02000
C1126       C  0.56477914  0.31962466  0.99481667    -0.02000
C1127       C  0.54174596  0.34192554  0.97516390     0.08000
C1128       C  0.57057541  0.34615908  0.94988272    -0.02200
Br1129     Br  0.54347301  0.37820810  0.92398745    -0.00700
Br1130     Br  0.65264807  0.32988257  0.90536178    -0.00800
Br1131     Br  0.52917812  0.31533331  0.53090629    -0.00700
Br1132     Br  0.64587282  0.27037799  0.01547293    -0.00700
C1133       C  0.87511606  0.33488734  0.96677154    -0.01900
C1134       C  0.92396586  0.33592194  0.95370862     0.07800
C1135       C  0.94918638  0.31375501  0.93460075    -0.02000
C1136       C  0.93072057  0.28955959  0.93202818    -0.02000
C1137       C  0.88319067  0.28819566  0.94592067     0.08000
C1138       C  0.85518273  0.31125225  0.96298473    -0.02200
Br1139     Br  0.78698720  0.31183904  0.97982492    -0.00700
Br1140     Br  0.83091098  0.36655066  0.48773926    -0.00800
Br1141     Br  0.97208791  0.25798509  0.90968231    -0.00700
Br1142     Br  0.50120122  0.31808245  0.90662171    -0.00700
C1143       C  0.97328589  0.39122408  0.54627607    -0.01900
C1144       C  0.50126031  0.39383180  0.52015911     0.07800
C1145       C  0.54167397  0.40806222  0.52222185    -0.02000
C1146       C  0.55167448  0.42093913  0.54947945    -0.02000
C1147       C  0.52046369  0.42013890  0.57477785     0.08000
C1148       C  0.98309820  0.40407378  0.57339281    -0.02200
Br1149     Br  0.94464467  0.39978083  0.60881217    -0.00700
Br1150     Br  0.91797937  0.37197061  0.54490204    -0.00800
Br1151     Br  0.60531493  0.44148974  0.55114021    -0.00700
Br1152     Br  0.58119125  0.41158011  0.48730202    -0.00700
N1153       N  0.48859895  0.85976908  0.47971548    -0.03500
C1154       C  0.48099461  0.88625140  0.99027832    -0.00900
C1155       C  0.93721363  0.90386630  0.97564010    -0.23800
C1156       C  0.91645201  0.88769511  0.95591830    -0.24000
C1157       C  0.94679756  0.86039648  0.45983249    -0.01000
H1158       H  0.91921800  0.92551091  0.98087757     0.12800
H1159       H  0.87912213  0.89463540  0.94294084     0.12800
N1160       N  0.56187703  0.61935495  0.52390720    -0.03500
C1161       C  0.57088201  0.60069432  0.04744723    -0.00900
C1162       C  0.62281299  0.59632851  0.05882429    -0.23800
C1163       C  0.64630015  0.61303692  0.04309541    -0.24000
C1164       C  0.60911694  0.62661838  0.52154887    -0.01000
H1165       H  0.64155660  0.58250531  0.07704441     0.12800
H1166       H  0.68690876  0.61467415  0.04655563     0.12800
Fe1167     Fe  0.84287521  0.72060095  0.39468637     1.65800
Fe1168     Fe  0.70744009  0.73502495  0.39548612     1.73200
Fe1169     Fe  0.78004625  0.73162962  0.46105849     1.54400
O1170       O  0.83633786  0.69391803  0.46463164    -0.81700
O1171       O  0.66733640  0.76663476  0.42377039    -0.80000
O1172       O  0.89116407  0.69576473  0.42839416    -0.84200
O1173       O  0.86042515  0.75548288  0.41250051    -0.79000
O1174       O  0.72344785  0.70971875  0.46661716    -0.80800
O1175       O  0.72275465  0.76513929  0.36752051    -0.83600
C1176       C  0.85938440  0.76446890  0.43935122     0.97200
C1177       C  0.88201768  0.68612047  0.45345953     1.04600
O1178       O  0.77642817  0.72913754  0.41716508    -1.12500
O1179       O  0.73892267  0.70395212  0.36456069    -0.75000
O1180       O  0.82653362  0.68578343  0.37447250    -0.78500
O1181       O  0.83762552  0.75439577  0.46031869    -0.79200
C1182       C  0.78284675  0.68544435  0.36053956     0.96100
O1183       O  0.80794618  0.74465829  0.35772606    -0.77100
O1184       O  0.68586660  0.70547835  0.42143696    -0.82300
C1185       C  0.67814101  0.77787567  0.44812756     0.98700
C1186       C  0.69309127  0.69976980  0.44933894     1.04600
O1187       O  0.72189769  0.76890756  0.46292766    -0.76500
C1188       C  0.76401738  0.76282035  0.35200189     1.02900
N1189       N  0.81300591  0.84307556  0.23798925    -0.03500
C1190       C  0.82100980  0.81683334  0.24980634    -0.00900
C1191       C  0.86977830  0.80002190  0.24104345    -0.23800
C1192       C  0.89284218  0.81608336  0.22373675    -0.24000
C1193       C  0.85838789  0.84263989  0.22287853    -0.01000
H1194       H  0.88845382  0.77891822  0.24841584     0.12800
H1195       H  0.93305768  0.80981801  0.21535074     0.12800
N1196       N  0.73337770  0.60073362  0.24809890    -0.03500
C1197       C  0.72491856  0.62731017  0.25889970    -0.00900
C1198       C  0.67438415  0.64301303  0.24935383    -0.23800
C1199       C  0.65010439  0.62549246  0.23375285    -0.24000
C1200       C  0.68676893  0.59971581  0.23347341    -0.01000
H1201       H  0.65474214  0.66403715  0.25633967     0.12800
H1202       H  0.60889479  0.63050925  0.22538295     0.12800
Fe1203     Fe  0.94775373  0.98101888  0.14431343     1.65800
Fe1204     Fe  0.58442189  0.96739305  0.14394401     1.73200
Fe1205     Fe  0.51991440  0.97386251  0.21072461     1.54400
O1206       O  0.95492079  0.50795664  0.21579390    -0.81700
O1207       O  0.62644564  0.93391930  0.17012407    -0.80000
O1208       O  0.90394770  0.50924237  0.17477837    -0.84200
O1209       O  0.93095167  0.94782502  0.16644194    -0.79000
O1210       O  0.56677643  0.50170326  0.21230439    -0.80800
O1211       O  0.56518255  0.93913554  0.11409303    -0.83600
C1212       C  0.94119303  0.93772343  0.19294188     0.97200
C1213       C  0.91187102  0.51805806  0.20085832     1.04600
O1214       O  0.51746123  0.97394286  0.16637937    -1.12500
O1215       O  0.55068070  0.50079378  0.11530638    -0.75000
O1216       O  0.96182601  0.51449478  0.12116574    -0.78500
O1217       O  0.97110854  0.94657851  0.21184470    -0.79200
C1218       C  0.50479592  0.51782711  0.11050799     0.96100
O1219       O  0.97673280  0.95433598  0.10922530    -0.77100
O1220       O  0.61346651  0.49454107  0.17075347    -0.82300
C1221       C  0.62440335  0.92719690  0.19743814     0.98700
C1222       C  0.60190483  0.50688178  0.19566032     1.04600
O1223       O  0.58724700  0.93997431  0.21437653    -0.77900
C1224       C  0.52118498  0.93878548  0.10102710     1.02900
C1225       C  0.85416048  0.53900057  0.24459539    -0.01900
C1226       C  0.86924437  0.54087554  0.21444569     0.07800
C1227       C  0.84352203  0.56491153  0.19748512    -0.02000
C1228       C  0.80305452  0.58627202  0.21022801    -0.02000
C1229       C  0.78455904  0.58305085  0.23915267     0.08000
C1230       C  0.81222619  0.56012950  0.25682144    -0.02200
Br1231     Br  0.79406300  0.55854923  0.29817844    -0.00700
Br1232     Br  0.88709691  0.00642888  0.26866750    -0.00800
Br1233     Br  0.77490571  0.62085393  0.18856769    -0.00700
Br1234     Br  0.86263939  0.56898310  0.15650908    -0.00700
C1235       C  0.63480107  0.53497813  0.23624475    -0.01900
C1236       C  0.62943260  0.52868165  0.20530723     0.07800
C1237       C  0.64768960  0.54474994  0.18371162    -0.02000
C1238       C  0.66624797  0.56785995  0.19289941    -0.02000
C1239       C  0.67211090  0.57380266  0.22366223     0.08000
C1240       C  0.65635038  0.55709083  0.24513243    -0.02200
Br1241     Br  0.65846426  0.56585788  0.28715641    -0.00700
Br1242     Br  0.61298139  0.51387490  0.26763998    -0.00800
Br1243     Br  0.67860268  0.59277716  0.16276704    -0.00700
Br1244     Br  0.64640764  0.53676207  0.14097642    -0.00700
C1245       C  0.92214110  0.87253361  0.23208803    -0.01900
C1246       C  0.87767889  0.86768796  0.21559980     0.07800
C1247       C  0.85420370  0.88617185  0.19205973    -0.02000
C1248       C  0.87080632  0.91058190  0.18728248    -0.02000
C1249       C  0.91811127  0.91427028  0.20187463     0.08000
C1250       C  0.94416135  0.89448433  0.22412639    -0.02200
Br1251     Br  0.01196821  0.89551465  0.24324523    -0.00700
Br1252     Br  0.95361284  0.84927331  0.26621664    -0.00800
Br1253     Br  0.82465719  0.93965665  0.16262100    -0.00700
Br1254     Br  0.80469006  0.87670730  0.16335073    -0.00700
C1255       C  0.68008758  0.87727967  0.19882684    -0.01900
C1256       C  0.66898708  0.90450101  0.21051188     0.07800
C1257       C  0.70407675  0.91083410  0.23277128    -0.02000
C1258       C  0.75016255  0.89036414  0.24299642    -0.02000
C1259       C  0.76151587  0.86292413  0.23152687     0.08000
C1260       C  0.72610717  0.85669151  0.20907295    -0.02200
Br1261     Br  0.74577674  0.82193841  0.18755177    -0.00700
Br1262     Br  0.63350447  0.86869286  0.16747849    -0.00800
Br1263     Br  0.80008339  0.90125121  0.27033740    -0.00700
Br1264     Br  0.69232951  0.94851557  0.24709309    -0.00700
C1265       C  0.81066724  0.66027462  0.31174085    -0.01900
C1266       C  0.78071399  0.66342953  0.33809598     0.07800
C1267       C  0.73904282  0.65034671  0.33978849    -0.02000
C1268       C  0.72243735  0.63762934  0.31432171    -0.02000
C1269       C  0.75036473  0.63545685  0.28711479     0.08000
C1270       C  0.79588411  0.64608232  0.28644729    -0.02200
Br1271     Br  0.83459765  0.64435613  0.25010494    -0.00700
Br1272     Br  0.86822746  0.67798505  0.30909498    -0.00800
Br1273     Br  0.65586024  0.62749857  0.31656320    -0.00700
Br1274     Br  0.70177496  0.65146328  0.37687940    -0.00700
C1275       C  0.75634485  0.77138823  0.29670639    -0.01900
C1276       C  0.76264703  0.78135884  0.32590019     0.07800
C1277       C  0.78125793  0.80527975  0.32969996    -0.02000
C1278       C  0.79751378  0.81791270  0.30465835    -0.02000
C1279       C  0.79190416  0.80797644  0.27502926     0.08000
C1280       C  0.77167873  0.78420279  0.27150775    -0.02200
Br1281     Br  0.77316745  0.76572584  0.23318442    -0.00700
Br1282     Br  0.73094607  0.73838660  0.29174952    -0.00800
Br1283     Br  0.83970930  0.84375401  0.31258143    -0.00700
Br1284     Br  0.78988897  0.81877432  0.36995272    -0.00700
C1285       C  0.61718657  0.69093596  0.47718465    -0.01900
C1286       C  0.66603223  0.68040089  0.46283444     0.07800
C1287       C  0.69308505  0.65197258  0.46560175    -0.02000
C1288       C  0.67044451  0.63398797  0.48177413    -0.02000
C1289       C  0.62370447  0.64488070  0.49852989     0.08000
C1290       C  0.59828481  0.67379984  0.49676039    -0.02200
Br1291     Br  0.54527511  0.69156872  0.52497995    -0.00700
Br1292     Br  0.57782924  0.72937419  0.47123029    -0.00800
Br1293     Br  0.70568161  0.59443693  0.48171052    -0.00700
Br1294     Br  0.76384084  0.63819203  0.44974975    -0.00700
C1295       C  0.01128698  0.62980401  0.47470033    -0.01900
C1296       C  0.01258933  0.63165074  0.50652713     0.07800
C1297       C  0.96835514  0.64968604  0.52052151    -0.02000
C1298       C  0.92673797  0.66762654  0.50327332    -0.02000
C1299       C  0.92589083  0.66622671  0.47134740     0.08000
C1300       C  0.96793524  0.64651605  0.45729062    -0.02200
Br1301     Br  0.96670162  0.64186247  0.41410929    -0.00700
Br1302     Br  0.06883034  0.60416236  0.45448909    -0.00800
Br1303     Br  0.87547774  0.69672846  0.52437698    -0.00700
Br1304     Br  0.46720626  0.65323748  0.56354334    -0.00700
C1305       C  0.52819770  0.58725003  0.09285771    -0.01900
C1306       C  0.53449758  0.58550487  0.06113916     0.07800
C1307       C  0.52076662  0.56334741  0.04548457    -0.02000
C1308       C  0.50610929  0.54213374  0.06142985    -0.02000
C1309       C  0.50339568  0.54325737  0.09298325     0.08000
C1310       C  0.51098916  0.56676412  0.10834355    -0.02200
Br1311     Br  0.50327476  0.56924672  0.15144486    -0.00700
Br1312     Br  0.55028289  0.61535714  0.11654453    -0.00800
Br1313     Br  0.99379943  0.01013904  0.04052854    -0.00700
Br1314     Br  0.52943740  0.55932006  0.00286325    -0.00700
C1315       C  0.61707065  0.82574375  0.44179228    -0.01900
C1316       C  0.63695978  0.80195042  0.45985491     0.07800
C1317       C  0.61324086  0.80007838  0.48763865    -0.02000
C1318       C  0.56481380  0.81962820  0.49481477    -0.02000
C1319       C  0.54177708  0.84192213  0.47515433     0.08000
C1320       C  0.57060641  0.84614999  0.44987089    -0.02200
Br1321     Br  0.54350673  0.87819508  0.42396980    -0.00700
Br1322     Br  0.65266940  0.82986016  0.40534670    -0.00800
Br1323     Br  0.52922957  0.81535492  0.03091712    -0.00700
Br1324     Br  0.64590383  0.77038416  0.51548009    -0.00700
C1325       C  0.87513622  0.83488597  0.46675455    -0.01900
C1326       C  0.92399709  0.83591306  0.45369867     0.07800
C1327       C  0.94922785  0.81373709  0.43460385    -0.02000
C1328       C  0.93075812  0.78954272  0.43203744    -0.02000
C1329       C  0.88321796  0.78818722  0.44592302     0.08000
C1330       C  0.85520352  0.81124987  0.46297578    -0.02200
Br1331     Br  0.78700200  0.81184130  0.47981132    -0.00700
Br1332     Br  0.83091260  0.86656137  0.98769544    -0.00800
Br1333     Br  0.97212999  0.75795776  0.40970772    -0.00700
Br1334     Br  0.50126090  0.81805007  0.40662733    -0.00700
C1335       C  0.97326869  0.89123449  0.04625367    -0.01900
C1336       C  0.50126815  0.89383168  0.02014485     0.07800
C1337       C  0.54169798  0.90805084  0.02221635    -0.02000
C1338       C  0.55169000  0.92092817  0.04947566    -0.02000
C1339       C  0.52045547  0.92013877  0.07476729     0.08000
C1340       C  0.98307101  0.90408455  0.07337203    -0.02200
Br1341     Br  0.94457873  0.89980453  0.10878040    -0.00700
Br1342     Br  0.91795389  0.87198644  0.04486825    -0.00800
Br1343     Br  0.60535501  0.94146330  0.05114657    -0.00700
Br1344     Br  0.58125639  0.91154773  0.98730631    -0.00700
N1345       N  0.48859872  0.85976879  0.97971630    -0.03500
C1346       C  0.48099534  0.88625162  0.49027769    -0.00900
C1347       C  0.93721333  0.90386594  0.47564072    -0.23800
C1348       C  0.91645140  0.88769472  0.45591907    -0.24000
C1349       C  0.94679802  0.86039685  0.95983174    -0.01000
H1350       H  0.91921775  0.92551048  0.48087819     0.12800
H1351       H  0.87912153  0.89463493  0.44294185     0.12800
N1352       N  0.56187773  0.61935465  0.02390696    -0.03500
C1353       C  0.57088127  0.60069495  0.54744780    -0.00900
C1354       C  0.62281173  0.59632994  0.55882541    -0.23800
C1355       C  0.64629850  0.61303860  0.54309660    -0.24000
C1356       C  0.60911823  0.62661744  0.02154824    -0.01000
H1357       H  0.64155529  0.58250715  0.57704580     0.12800
H1358       H  0.68690656  0.61467636  0.54655715     0.12800
Fe1359     Fe  0.84287446  0.72060106  0.89468595     1.65800
Fe1360     Fe  0.70743931  0.73502552  0.89548633     1.73200
Fe1361     Fe  0.78004635  0.73163027  0.96105837     1.54400
O1362       O  0.83633791  0.69391870  0.96463166    -0.81700
O1363       O  0.66733628  0.76663545  0.92377060    -0.80000
O1364       O  0.89116351  0.69576475  0.92839363    -0.84200
O1365       O  0.86042544  0.75548291  0.91249981    -0.79000
O1366       O  0.72344788  0.70971948  0.96661758    -0.80800
O1367       O  0.72275387  0.76513972  0.86752047    -0.83600
C1368       C  0.85938449  0.76446929  0.93935038     0.97200
C1369       C  0.88201743  0.68612080  0.95345924     1.04600
O1370       O  0.77642773  0.72913804  0.91716495    -1.12500
O1371       O  0.73892089  0.70395259  0.86456084    -0.75000
O1372       O  0.82653177  0.68578360  0.87447240    -0.78500
O1373       O  0.83762552  0.75439641  0.96031804    -0.79200
C1374       C  0.78284466  0.68544464  0.86053962     0.96100
O1375       O  0.80794518  0.74465845  0.85772570    -0.77100
O1376       O  0.68586605  0.70547907  0.92143755    -0.82300
C1377       C  0.67814126  0.77787635  0.94812767     0.98700
C1378       C  0.69309102  0.69977055  0.94933952     1.04600
O1379       O  0.72189806  0.76890820  0.96292761    -0.76500
C1380       C  0.76401655  0.76282071  0.85200173     1.02900
N1381       N  0.81300700  0.84307527  0.73798901    -0.03500
C1382       C  0.82101076  0.81683309  0.74980616    -0.00900
C1383       C  0.86977922  0.80002163  0.74104324    -0.23800
C1384       C  0.89284316  0.81608307  0.72373645    -0.24000
C1385       C  0.85838886  0.84263963  0.72287820    -0.01000
H1386       H  0.88845473  0.77891792  0.74841562     0.12800
H1387       H  0.93305846  0.80981772  0.71535036     0.12800
N1388       N  0.73337639  0.60073403  0.74809835    -0.03500
C1389       C  0.72491701  0.62731061  0.75889905    -0.00900
C1390       C  0.67438286  0.64301348  0.74935264    -0.23800
C1391       C  0.65010351  0.62549279  0.73375157    -0.24000
C1392       C  0.68676790  0.59971614  0.73347251    -0.01000
H1393       H  0.65474077  0.66403757  0.75633821     0.12800
H1394       H  0.60889386  0.63050960  0.72538129     0.12800
Fe1395     Fe  0.94775308  0.98101917  0.64431322     1.65800
Fe1396     Fe  0.58442300  0.96739252  0.64394404     1.73200
Fe1397     Fe  0.51991555  0.97386191  0.71072473     1.54400
O1398       O  0.95492002  0.50795727  0.71579374    -0.81700
O1399       O  0.62644690  0.93391883  0.67012419    -0.80000
O1400       O  0.90394705  0.50924275  0.67477819    -0.84200
O1401       O  0.93095107  0.94782527  0.66644172    -0.79000
O1402       O  0.56677774  0.50170225  0.71230431    -0.80800
O1403       O  0.56518377  0.93913481  0.61409316    -0.83600
C1404       C  0.94119228  0.93772382  0.69294176     0.97200
C1405       C  0.91187027  0.51805859  0.70085808     1.04600
O1406       O  0.51746240  0.97394235  0.66637945    -1.12500
O1407       O  0.55068143  0.50079292  0.61530588    -0.75000
O1408       O  0.96182543  0.51449497  0.62116550    -0.78500
O1409       O  0.97110735  0.94657910  0.71184464    -0.79200
C1410       C  0.50479678  0.51782650  0.61050787     0.96100
O1411       O  0.97673218  0.95433631  0.60922512    -0.77100
O1412       O  0.61346697  0.49454069  0.67075307    -0.82300
C1413       C  0.62440438  0.92719638  0.69743824     0.98700
C1414       C  0.60190547  0.50688122  0.69566006     1.04600
O1415       O  0.58724793  0.93997374  0.71437655    -0.77900
C1416       C  0.52118617  0.93878500  0.60102704     1.02900
C1417       C  0.85415944  0.53900113  0.74459498    -0.01900
C1418       C  0.86924334  0.54087605  0.71444530     0.07800
C1419       C  0.84352064  0.56491192  0.69748459    -0.02000
C1420       C  0.80305332  0.58627248  0.71022751    -0.02000
C1421       C  0.78455787  0.58305135  0.73915218     0.08000
C1422       C  0.81222497  0.56012999  0.75682095    -0.02200
Br1423     Br  0.79406115  0.55854944  0.79817778    -0.00700
Br1424     Br  0.88709669  0.00642983  0.76866728    -0.00800
Br1425     Br  0.77490487  0.62085449  0.68856725    -0.00700
Br1426     Br  0.86263722  0.56898327  0.65650837    -0.00700
C1427       C  0.63480087  0.53497818  0.73624433    -0.01900
C1428       C  0.62943250  0.52868148  0.70530684     0.07800
C1429       C  0.64768885  0.54474993  0.68371111    -0.02000
C1430       C  0.66624737  0.56785994  0.69289873    -0.02000
C1431       C  0.67211000  0.57380290  0.72366152     0.08000
C1432       C  0.65634935  0.55709123  0.74513183    -0.02200
Br1433     Br  0.65846191  0.56585908  0.78715569    -0.00700
Br1434     Br  0.61298204  0.51387486  0.76763974    -0.00800
Br1435     Br  0.67860311  0.59277671  0.66276615    -0.00700
Br1436     Br  0.64640590  0.53676223  0.64097591    -0.00700
C1437       C  0.92214250  0.87253328  0.73208720    -0.01900
C1438       C  0.87767973  0.86768778  0.71559936     0.07800
C1439       C  0.85420357  0.88617206  0.69205973    -0.02000
C1440       C  0.87080565  0.91058232  0.68728286    -0.02000
C1441       C  0.91811104  0.91427054  0.70187453     0.08000
C1442       C  0.94416226  0.89448421  0.72412566    -0.02200
Br1443     Br  0.01197006  0.89551425  0.74324357    -0.00700
Br1444     Br  0.95361567  0.84927264  0.76621528    -0.00800
Br1445     Br  0.82465538  0.93965768  0.66262271    -0.00700
Br1446     Br  0.80468973  0.87670789  0.66335053    -0.00700
C1447       C  0.68008885  0.87727927  0.69882659    -0.01900
C1448       C  0.66898790  0.90450047  0.71051204     0.07800
C1449       C  0.70407700  0.91083344  0.73277189    -0.02000
C1450       C  0.75016304  0.89036353  0.74299683    -0.02000
C1451       C  0.76151695  0.86292374  0.73152667     0.08000
C1452       C  0.72610870  0.85669121  0.70907245    -0.02200
Br1453     Br  0.74577952  0.82193858  0.68755041    -0.00700
Br1454     Br  0.63350574  0.86869243  0.66747823    -0.00800
Br1455     Br  0.80008368  0.90125033  0.77033822    -0.00700
Br1456     Br  0.69232845  0.94851462  0.74709484    -0.00700
C1457       C  0.81066598  0.66027406  0.81174132    -0.01900
C1458       C  0.78071133  0.66342984  0.83809600     0.07800
C1459       C  0.73903873  0.65034791  0.83978794    -0.02000
C1460       C  0.72243352  0.63763063  0.81432100    -0.02000
C1461       C  0.75036229  0.63545738  0.78711447     0.08000
C1462       C  0.79588289  0.64608190  0.78644761    -0.02200
Br1463     Br  0.83459836  0.64435463  0.75010582    -0.00700
Br1464     Br  0.86822829  0.67798313  0.80909610    -0.00800
Br1465     Br  0.65585534  0.62750079  0.81656177    -0.00700
Br1466     Br  0.70176862  0.65146554  0.87687826    -0.00700
C1467       C  0.75634335  0.77138903  0.79670631    -0.01900
C1468       C  0.76264641  0.78135933  0.82590015     0.07800
C1469       C  0.78125891  0.80527975  0.82969993    -0.02000
C1470       C  0.79751568  0.81791233  0.80465833    -0.02000
C1471       C  0.79190496  0.80797643  0.77502920     0.08000
C1472       C  0.77167763  0.78420341  0.77150764    -0.02200
Br1473     Br  0.77316402  0.76572703  0.73318414    -0.00700
Br1474     Br  0.73094286  0.73838794  0.79174946    -0.00800
Br1475     Br  0.83971375  0.84375249  0.81258139    -0.00700
Br1476     Br  0.78989041  0.81877425  0.86995267    -0.00700
C1477       C  0.61718775  0.69093633  0.97718642    -0.01900
C1478       C  0.66603234  0.68040147  0.96283509     0.07800
C1479       C  0.69308461  0.65197297  0.96560106    -0.02000
C1480       C  0.67044452  0.63398798  0.98177317    -0.02000
C1481       C  0.62370542  0.64488036  0.99852978     0.08000
C1482       C  0.59828664  0.67379966  0.99676178    -0.02200
Br1483     Br  0.54527932  0.69156774  0.02498293    -0.00700
Br1484     Br  0.57783090  0.72937494  0.97123406    -0.00800
Br1485     Br  0.70568101  0.59443689  0.98170802    -0.00700
Br1486     Br  0.76383918  0.63819260  0.94974747    -0.00700
C1487       C  0.01128606  0.62980378  0.97469976    -0.01900
C1488       C  0.01258881  0.63165051  0.00652656     0.07800
C1489       C  0.96835501  0.64968601  0.02052104    -0.02000
C1490       C  0.92673830  0.66762690  0.00327291    -0.02000
C1491       C  0.92589057  0.66622691  0.97134699     0.08000
C1492       C  0.96793441  0.64651597  0.95729014    -0.02200
Br1493     Br  0.96670036  0.64186226  0.91410882    -0.00700
Br1494     Br  0.06882864  0.60416184  0.95448837    -0.00800
Br1495     Br  0.87548019  0.69672976  0.02437656    -0.00700
Br1496     Br  0.46720685  0.65323734  0.06354339    -0.00700
C1497       C  0.52819683  0.58725002  0.59285797    -0.01900
C1498       C  0.53449740  0.58550494  0.56113946     0.07800
C1499       C  0.52076775  0.56334718  0.54548472    -0.02000
C1500       C  0.50611107  0.54213320  0.56142984    -0.02000
C1501       C  0.50339661  0.54325682  0.59298320     0.08000
C1502       C  0.51098886  0.56676378  0.60834360    -0.02200
Br1503     Br  0.50327406  0.56924625  0.65144487    -0.00700
Br1504     Br  0.55028029  0.61535750  0.61654515    -0.00800
Br1505     Br  0.99380127  0.01013907  0.54052830    -0.00700
Br1506     Br  0.52943924  0.55932001  0.50286344    -0.00700
C1507       C  0.61707029  0.82574431  0.94179254    -0.01900
C1508       C  0.63696028  0.80195109  0.95985522     0.07800
C1509       C  0.61324250  0.80007914  0.98763931    -0.02000
C1510       C  0.56481517  0.81962865  0.99481560    -0.02000
C1511       C  0.54177718  0.84192227  0.97515497     0.08000
C1512       C  0.57060585  0.84615033  0.94987131    -0.02200
Br1513     Br  0.54350498  0.87819523  0.92397004    -0.00700
Br1514     Br  0.65266818  0.82986077  0.90534667    -0.00800
Br1515     Br  0.52922651  0.81535450  0.53091572    -0.00700
Br1516     Br  0.64590755  0.77038547  0.01548103    -0.00700
C1517       C  0.87513644  0.83488646  0.96675352    -0.01900
C1518       C  0.92399749  0.83591346  0.95369782     0.07800
C1519       C  0.94922834  0.81373740  0.93460310    -0.02000
C1520       C  0.93075832  0.78954312  0.93203651    -0.02000
C1521       C  0.88321793  0.78818773  0.94592192     0.08000
C1522       C  0.85520344  0.81125048  0.96297454    -0.02200
Br1523     Br  0.78700109  0.81184246  0.97980928    -0.00700
Br1524     Br  0.83091219  0.86656091  0.48769634    -0.00800
Br1525     Br  0.97213028  0.75795814  0.90970683    -0.00700
Br1526     Br  0.50126164  0.81804917  0.90662866    -0.00700
C1527       C  0.97326846  0.89123433  0.54625401    -0.01900
C1528       C  0.50126875  0.89383160  0.52014442     0.07800
C1529       C  0.54170007  0.90804976  0.52221642    -0.02000
C1530       C  0.55169203  0.92092704  0.54947581    -0.02000
C1531       C  0.52045638  0.92013833  0.57476714     0.08000
C1532       C  0.98307036  0.90408472  0.57337221    -0.02200
Br1533     Br  0.94457706  0.89980532  0.60878040    -0.00700
Br1534     Br  0.91795408  0.87198600  0.54486868    -0.00800
Br1535     Br  0.60535885  0.94146100  0.55114722    -0.00700
Br1536     Br  0.58126094  0.91154528  0.48730697    -0.00700
loop_ 
_geom_bond_atom_site_label_1 
_geom_bond_atom_site_label_2 
_geom_bond_distance 
_geom_bond_site_symmetry_2 
_ccdc_geom_bond_type 
N1          C167   1.446   1_655  S
N1          C773   1.368       .  A
N1          C194   1.361       .  A
C2          N193   1.361       .  A
C2          C184   1.494   1_656  S
C2          C771   1.381       .  A
C3            C4   1.375       .  A
C3          C770   1.381       .  A
C3            H6   1.080       .  S
C4          C197   1.385       .  A
C4            H7   1.084       .  S
C5          N769   1.368       .  A
C5          C174   1.508       .  S
C5          C196   1.385       .  A
N8          C912   1.458       .  S
N8           C12   1.372       .  A
N8          C201   1.377       .  A
C9          N200   1.377       .  A
C9          C154   1.502       .  S
C9           C10   1.383       .  A
C10          C11   1.363       .  A
C10          H13   1.082       .  S
C11         C204   1.380       .  A
C11          H14   1.082       .  S
C12         C137   1.497       .  S
C12         C203   1.380       .  A
Fe15         O31   2.076       .  S
Fe15         O21   2.053       .  S
Fe15         O28   2.080       .  S
Fe15         O20   2.102       .  S
Fe15         O26   1.965       .  S
Fe16         O19   2.078       .  S
Fe16         O23   2.081       .  S
Fe16         O27   2.077       .  S
Fe16         O32   2.077       .  S
Fe16         O26   1.954       .  S
Fe17         O35   2.057       .  S
Fe17         O22   2.068       .  S
Fe17         O29   2.100       .  S
Fe17         O18   2.050       .  S
Fe17         O26   1.956       .  S
O18          C25   1.260       .  A
O19          C33   1.272       .  A
O20          C25   1.272       .  A
O21          C24   1.270       .  A
O22          C34   1.270       .  A
O23          C36   1.271       .  A
C24         C177   1.493       .  S
C24          O29   1.278       .  A
C25         C147   1.502       .  S
O27          C30   1.275       .  A
O28          C30   1.276       .  A
C30         C114   1.486       .  S
O31          C36   1.270       .  A
O32          C34   1.272       .  A
C33         C164   1.480       .  S
C33          O35   1.266       .  A
C34         C134   1.476       .  S
C36         C124   1.482       .  S
N37         C107   1.453       .  S
N37          C41   1.368       .  A
N37          C38   1.372       .  A
C38         C127   1.504       .  S
C38          C39   1.382       .  A
C39          C40   1.372       .  A
C39          H42   1.081       .  S
C40          C41   1.383       .  A
C40          H43   1.083       .  S
C41          C94   1.502       .  S
N44          C77   1.448       .  S
N44          C48   1.364       .  A
N44          C45   1.367       .  A
C45         C117   1.500       .  S
C45          C46   1.388       .  A
C46          C47   1.374       .  A
C46          H49   1.082       .  S
C47          C48   1.377       .  A
C47          H50   1.083       .  S
C48          C87   1.495       .  S
Fe51         O67   2.067       .  S
Fe51         O57   2.079       .  S
Fe51        O448   2.084       .  S
Fe51        O440   2.077       .  S
Fe51        O830   1.973       .  S
Fe52         O55   2.072       .  S
Fe52         O59   2.069       .  S
Fe52        O447   2.081       .  S
Fe52        O452   2.064       .  S
Fe52         O62   1.980       .  S
Fe53         O71   2.080       .  S
Fe53        O442   2.069       .  S
Fe53        O833   2.088   1_455  S
Fe53       O1206   2.063   1_455  S
Fe53         O62   1.971       .  S
O54       Fe1205   2.063   1_545  S
O54          C61   1.262       .  A
O55          C69   1.269       .  A
O56        Fe435   2.077   1_545  S
O56          C61   1.266       .  A
O57          C60   1.277       .  A
O58        Fe437   2.069   1_545  S
O58          C70   1.271       .  A
O59          C72   1.266       .  A
C60          C97   1.507       .  S
C60          O65   1.278       .  A
C61          C74   1.496       .  S
O62        Fe819   1.973   1_455  S
O63        Fe436   2.081   1_545  S
O63          C66   1.275       .  A
O64        Fe435   2.084   1_545  S
O64         C834   1.275       .  A
O65        Fe821   2.088       .  S
C66         C157   1.483       .  S
C66         O832   1.275   1_455  A
O67         C840   1.267       .  A
O68        Fe436   2.065       .  S
O68          C70   1.267   1_565  A
C69         C104   1.489       .  S
C69          O71   1.270       .  A
C70          C84   1.500       .  S
C72         C187   1.488       .  S
C72         O835   1.267   1_455  A
C73          C74   1.420       .  A
C73          C78   1.415       .  A
C73        Br464   1.931       .  S
C74          C75   1.414       .  A
C75          C76   1.409       .  A
C75         Br82   1.931       .  S
C76          C77   1.413       .  A
C76         Br81   1.932       .  S
C77          C78   1.405       .  A
C78         Br79   1.921       .  S
Br80        C457   1.931       .  S
C83          C84   1.419       .  A
C83          C88   1.408       .  A
C83         Br90   1.941       .  S
C84          C85   1.425       .  A
C85          C86   1.411       .  A
C85         Br92   1.940       .  S
C86          C87   1.409       .  A
C86         Br91   1.924       .  S
C87          C88   1.411       .  A
C88         Br89   1.918       .  S
C93          C94   1.418       .  A
C93          C98   1.412       .  A
C93        Br100   1.937       .  S
C94          C95   1.410       .  A
C95          C96   1.412       .  A
C95        Br102   1.923       .  S
C96          C97   1.421       .  A
C96        Br101   1.934       .  S
C97          C98   1.422       .  A
C98         Br99   1.938       .  S
C103        C104   1.406       .  A
C103        C108   1.413       .  A
C103       Br110   1.932       .  S
C104        C105   1.411       .  A
C105        C106   1.411       .  A
C105       Br112   1.923       .  S
C106        C107   1.412       .  A
C106       Br111   1.923       .  S
C107        C108   1.421       .  A
C108       Br109   1.923       .  S
C113        C114   1.412       .  A
C113        C118   1.418       .  A
C113       Br120   1.930       .  S
C114        C115   1.405       .  A
C115        C116   1.403       .  A
C115       Br122   1.932       .  S
C116        C117   1.419       .  A
C116       Br121   1.927       .  S
C117        C118   1.416       .  A
C118       Br119   1.920       .  S
C123        C124   1.406       .  A
C123        C128   1.413       .  A
C123       Br130   1.933       .  S
C124        C125   1.405       .  A
C125        C126   1.413       .  A
C125       Br132   1.933       .  S
C126        C127   1.420       .  A
C126       Br131   1.920       .  S
C127        C128   1.421       .  A
C128       Br129   1.926       .  S
C133        C134   1.406       .  A
C133        C138   1.410       .  A
C133       Br140   1.928       .  S
C134        C135   1.405       .  A
C135        C136   1.407       .  A
C135       Br142   1.932       .  S
C136        C137   1.421       .  A
C136       Br141   1.935       .  S
C137        C138   1.415       .  A
C138       Br139   1.921       .  S
C143        C144   1.418       .  A
C143        C148   1.416       .  A
C143       Br150   1.927       .  S
C144        N776   1.458       .  S
C144        C145   1.412       .  A
C145        C146   1.411       .  A
C145       Br920   1.921       .  S
C146        C147   1.421       .  A
C146       Br151   1.943       .  S
C147        C148   1.416       .  A
C148       Br149   1.933       .  S
Br152       C913   1.921       .  S
C153        C154   1.425       .  A
C153        C158   1.409       .  A
C153       Br160   1.937       .  S
C154        C155   1.416       .  A
C155        C156   1.416       .  A
C155       Br162   1.919       .  S
C156        C157   1.407       .  A
C156      Br1313   1.929   1_455  S
C157        C158   1.404       .  A
C158       Br159   1.934       .  S
Br161      C1308   1.929       .  S
C163        C164   1.405       .  A
C163        C168   1.407       .  A
C163       Br170   1.930       .  S
C164        C165   1.413       .  A
C165        C166   1.411       .  A
C165       Br172   1.930       .  S
C166        C167   1.407       .  A
C166       Br363   1.919       .  S
C167        C168   1.418       .  A
C168       Br169   1.934       .  S
Br171       C358   1.919   1_554  S
C173        C174   1.423       .  A
C173        C178   1.411       .  A
C173       Br372   1.935       .  S
C174        C175   1.415       .  A
C175        C176   1.411       .  A
C175       Br950   1.919       .  S
C176        C177   1.413       .  A
C176       Br181   1.936       .  S
C177        C178   1.413       .  A
C178       Br179   1.934       .  S
Br180       C365   1.935       .  S
Br182       C943   1.919   1_455  S
C183        C188   1.407       .  A
C183        C952   1.414       .  A
C183       Br190   1.923       .  S
C184        C185   1.411       .  A
C184        C951   1.414   1_455  A
C185        C186   1.415       .  A
C185       Br192   1.923   1_554  S
C186        C187   1.414       .  A
C186       Br191   1.931       .  S
C187        C956   1.409   1_455  A
C188        C955   1.409       .  A
C188       Br189   1.935       .  S
N193        C359   1.446   1_655  S
N193        C965   1.368       .  A
C194        C376   1.494   1_655  S
C194        C963   1.381       .  A
C195        C962   1.381       .  A
C195        C196   1.375       .  A
C195        H198   1.080       .  S
C196        H199   1.084       .  S
C197        N961   1.368       .  A
C197        C366   1.508       .  S
N200       C1104   1.458       .  S
N200        C204   1.372       .  A
C201        C346   1.502       .  S
C201        C202   1.383       .  A
C202        C203   1.363       .  A
C202        H205   1.082       .  S
C203        H206   1.082       .  S
C204        C329   1.497   1_554  S
Fe207       O223   2.076       .  S
Fe207       O213   2.053       .  S
Fe207       O220   2.080       .  S
Fe207       O212   2.102       .  S
Fe207       O218   1.965       .  S
Fe208       O211   2.078       .  S
Fe208       O215   2.081       .  S
Fe208       O219   2.077       .  S
Fe208       O224   2.077       .  S
Fe208       O218   1.954       .  S
Fe209       O227   2.057       .  S
Fe209       O214   2.068       .  S
Fe209       O221   2.100       .  S
Fe209       O210   2.050       .  S
Fe209       O218   1.956       .  S
O210        C217   1.260       .  A
O211        C225   1.272       .  A
O212        C217   1.272       .  A
O213        C216   1.270       .  A
O214        C226   1.270       .  A
O215        C228   1.271       .  A
C216        C369   1.493       .  S
C216        O221   1.278       .  A
C217        C339   1.502       .  S
O219        C222   1.275       .  A
O220        C222   1.276       .  A
C222        C306   1.486       .  S
O223        C228   1.270       .  A
O224        C226   1.272       .  A
C225        C356   1.480       .  S
C225        O227   1.266       .  A
C226        C326   1.476       .  S
C228        C316   1.482       .  S
N229        C299   1.453       .  S
N229        C233   1.368       .  A
N229        C230   1.372       .  A
C230        C319   1.504       .  S
C230        C231   1.382       .  A
C231        C232   1.372       .  A
C231        H234   1.081       .  S
C232        C233   1.383       .  A
C232        H235   1.083       .  S
C233        C286   1.502       .  S
N236        C269   1.448       .  S
N236        C240   1.364       .  A
N236        C237   1.367       .  A
C237        C309   1.500       .  S
C237        C238   1.388       .  A
C238        C239   1.374       .  A
C238        H241   1.082       .  S
C239        C240   1.377       .  A
C239        H242   1.083       .  S
C240        C279   1.495       .  S
Fe243       O259   2.067       .  S
Fe243       O249   2.079       .  S
Fe243       O640   2.084       .  S
Fe243       O632   2.077       .  S
Fe243      O1022   1.973       .  S
Fe244       O247   2.072       .  S
Fe244       O251   2.069       .  S
Fe244       O639   2.081       .  S
Fe244       O644   2.064       .  S
Fe244       O254   1.980       .  S
Fe245       O263   2.080       .  S
Fe245       O634   2.069       .  S
Fe245      O1025   2.088   1_455  S
Fe245      O1398   2.063   1_455  S
Fe245       O254   1.971       .  S
O246      Fe1397   2.063   1_545  S
O246        C253   1.262       .  A
O247        C261   1.269       .  A
O248       Fe627   2.077   1_545  S
O248        C253   1.266       .  A
O249        C252   1.277       .  A
O250       Fe629   2.069   1_545  S
O250        C262   1.271       .  A
O251        C264   1.266       .  A
C252        C289   1.507       .  S
C252        O257   1.278       .  A
C253        C266   1.496       .  S
O254      Fe1011   1.973   1_455  S
O255       Fe628   2.081   1_545  S
O255        C258   1.275       .  A
O256       Fe627   2.084   1_545  S
O256       C1026   1.275       .  A
O257      Fe1013   2.088       .  S
C258        C349   1.483       .  S
C258       O1024   1.275   1_455  A
O259       C1032   1.267       .  A
O260       Fe628   2.065       .  S
O260        C262   1.267   1_565  A
C261        C296   1.489       .  S
C261        O263   1.270       .  A
C262        C276   1.500       .  S
C264        C379   1.488       .  S
C264       O1027   1.267   1_455  A
C265        C266   1.420       .  A
C265        C270   1.415       .  A
C265       Br656   1.931       .  S
C266        C267   1.414       .  A
C267        C268   1.409       .  A
C267       Br274   1.931       .  S
C268        C269   1.413       .  A
C268       Br273   1.932       .  S
C269        C270   1.405       .  A
C270       Br271   1.921       .  S
Br272       C649   1.931       .  S
C275        C276   1.419       .  A
C275        C280   1.408       .  A
C275       Br282   1.941       .  S
C276        C277   1.425       .  A
C277        C278   1.411       .  A
C277       Br284   1.940       .  S
C278        C279   1.409       .  A
C278       Br283   1.924       .  S
C279        C280   1.411       .  A
C280       Br281   1.918       .  S
C285        C286   1.418       .  A
C285        C290   1.412       .  A
C285       Br292   1.937       .  S
C286        C287   1.410       .  A
C287        C288   1.412       .  A
C287       Br294   1.923       .  S
C288        C289   1.421       .  A
C288       Br293   1.934       .  S
C289        C290   1.422       .  A
C290       Br291   1.938       .  S
C295        C296   1.406       .  A
C295        C300   1.413       .  A
C295       Br302   1.932       .  S
C296        C297   1.411       .  A
C297        C298   1.411       .  A
C297       Br304   1.923       .  S
C298        C299   1.412       .  A
C298       Br303   1.923       .  S
C299        C300   1.421       .  A
C300       Br301   1.923       .  S
C305        C306   1.412       .  A
C305        C310   1.418       .  A
C305       Br312   1.930       .  S
C306        C307   1.405       .  A
C307        C308   1.403       .  A
C307       Br314   1.932       .  S
C308        C309   1.419       .  A
C308       Br313   1.927       .  S
C309        C310   1.416       .  A
C310       Br311   1.920       .  S
C315        C316   1.406       .  A
C315        C320   1.413       .  A
C315       Br322   1.933       .  S
C316        C317   1.405       .  A
C317        C318   1.413       .  A
C317       Br324   1.933       .  S
C318        C319   1.420       .  A
C318       Br323   1.920       .  S
C319        C320   1.421       .  A
C320       Br321   1.926       .  S
C325        C326   1.406       .  A
C325        C330   1.410       .  A
C325       Br332   1.928       .  S
C326        C327   1.405       .  A
C327        C328   1.407       .  A
C327       Br334   1.932       .  S
C328        C329   1.421       .  A
C328       Br333   1.935       .  S
C329        C330   1.415       .  A
C330       Br331   1.921   1_556  S
C335        C336   1.418   1_556  A
C335        C340   1.416       .  A
C335       Br342   1.927       .  S
C336        N968   1.458       .  S
C336        C337   1.412       .  A
C337        C338   1.411       .  A
C337      Br1112   1.921       .  S
C338        C339   1.421   1_554  A
C338       Br343   1.943       .  S
C339        C340   1.416       .  A
C340       Br341   1.933       .  S
Br344      C1105   1.921       .  S
C345        C346   1.425       .  A
C345        C350   1.409       .  A
C345       Br352   1.937       .  S
C346        C347   1.416       .  A
C347        C348   1.416       .  A
C347       Br354   1.919       .  S
C348        C349   1.407       .  A
C348      Br1505   1.929   1_455  S
C349        C350   1.404       .  A
C350       Br351   1.934       .  S
Br353      C1500   1.929       .  S
C355        C356   1.405       .  A
C355        C360   1.407       .  A
C355       Br362   1.930       .  S
C356        C357   1.413       .  A
C357        C358   1.411       .  A
C357       Br364   1.930   1_556  S
C358        C359   1.407       .  A
C359        C360   1.418       .  A
C360       Br361   1.934       .  S
C365        C366   1.423       .  A
C365        C370   1.411       .  A
C366        C367   1.415       .  A
C367        C368   1.411       .  A
C367      Br1142   1.919       .  S
C368        C369   1.413       .  A
C368       Br373   1.936       .  S
C369        C370   1.413       .  A
C370       Br371   1.934       .  S
Br374      C1135   1.919   1_455  S
C375       C1144   1.414       .  A
C375        C380   1.407       .  A
C375       Br382   1.923       .  S
C376       C1143   1.414   1_455  A
C376        C377   1.411       .  A
C377        C378   1.415       .  A
C377       Br384   1.923       .  S
C378        C379   1.414       .  A
C378       Br383   1.931       .  S
C379       C1148   1.409   1_455  A
C380       C1147   1.409       .  A
C380       Br381   1.935       .  S
N385        C551   1.446   1_655  S
N385       C1157   1.369       .  A
N385        C578   1.361       .  A
C386        N577   1.361       .  A
C386        C568   1.494   1_656  S
C386       C1155   1.381       .  A
C387       C1154   1.381       .  A
C387        C388   1.375       .  A
C387        H390   1.080       .  S
C388        C581   1.385       .  A
C388        H391   1.084       .  S
C389       N1153   1.369       .  A
C389        C558   1.508       .  S
C389        C580   1.385       .  A
N392       C1296   1.458       .  S
N392        C396   1.372       .  A
N392        C585   1.377       .  A
C393        N584   1.377       .  A
C393        C538   1.502       .  S
C393        C394   1.383       .  A
C394        C395   1.363       .  A
C394        H397   1.082       .  S
C395        C588   1.380       .  A
C395        H398   1.082       .  S
C396        C521   1.497       .  S
C396        C587   1.380       .  A
Fe399       O415   2.076       .  S
Fe399       O405   2.053       .  S
Fe399       O412   2.080       .  S
Fe399       O404   2.102       .  S
Fe399       O410   1.965       .  S
Fe400       O403   2.078       .  S
Fe400       O407   2.081       .  S
Fe400       O411   2.077       .  S
Fe400       O416   2.077       .  S
Fe400       O410   1.954       .  S
Fe401       O419   2.057       .  S
Fe401       O406   2.068       .  S
Fe401       O413   2.100       .  S
Fe401       O402   2.050       .  S
Fe401       O410   1.956       .  S
O402        C409   1.260       .  A
O403        C417   1.272       .  A
O404        C409   1.272       .  A
O405        C408   1.270       .  A
O406        C418   1.270       .  A
O407        C420   1.271       .  A
C408        C561   1.493       .  S
C408        O413   1.278       .  A
C409        C531   1.502       .  S
O411        C414   1.275       .  A
O412        C414   1.276       .  A
C414        C498   1.486       .  S
O415        C420   1.269       .  A
O416        C418   1.272       .  A
C417        C548   1.480       .  S
C417        O419   1.266       .  A
C418        C518   1.476       .  S
C420        C508   1.482       .  S
N421        C491   1.453       .  S
N421        C425   1.368       .  A
N421        C422   1.372       .  A
C422        C511   1.504       .  S
C422        C423   1.382       .  A
C423        C424   1.372       .  A
C423        H426   1.081       .  S
C424        C425   1.383       .  A
C424        H427   1.083       .  S
C425        C478   1.502       .  S
N428        C461   1.448       .  S
N428        C432   1.364       .  A
N428        C429   1.367       .  A
C429        C501   1.500       .  S
C429        C430   1.388       .  A
C430        C431   1.374       .  A
C430        H433   1.082       .  S
C431        C432   1.377       .  A
C431        H434   1.083       .  S
C432        C471   1.495       .  S
Fe435       O451   2.067       .  S
Fe435       O441   2.079       .  S
Fe435      O1214   1.973       .  S
Fe436       O439   2.072       .  S
Fe436       O443   2.069       .  S
Fe436       O446   1.980       .  S
Fe437       O455   2.080       .  S
Fe437      O1217   2.088   1_455  S
Fe437       O822   2.063   1_465  S
Fe437       O446   1.971       .  S
O438       Fe821   2.063       .  S
O438        C445   1.262       .  A
O439        C453   1.269       .  A
O440        C445   1.266       .  A
O441        C444   1.277       .  A
O442        C454   1.271       .  A
O443        C456   1.266       .  A
C444        C481   1.507       .  S
C444        O449   1.278       .  A
C445        C458   1.496       .  S
O446      Fe1203   1.973   1_455  S
O447        C450   1.275       .  A
O448       C1218   1.275       .  A
O449      Fe1205   2.088       .  S
C450        C541   1.483       .  S
C450       O1216   1.275   1_455  A
O451       C1224   1.267       .  A
O452        C454   1.267       .  A
C453        C488   1.489       .  S
C453        O455   1.270       .  A
C454        C468   1.500       .  S
C456        C571   1.488       .  S
C456       O1219   1.267   1_455  A
C457        C458   1.420       .  A
C457        C462   1.415       .  A
C458        C459   1.414       .  A
C459        C460   1.409       .  A
C459       Br466   1.931       .  S
C460        C461   1.413       .  A
C460       Br465   1.932       .  S
C461        C462   1.405       .  A
C462       Br463   1.921       .  S
C467        C468   1.419       .  A
C467        C472   1.408       .  A
C467       Br474   1.941       .  S
C468        C469   1.425       .  A
C469        C470   1.411       .  A
C469       Br476   1.940       .  S
C470        C471   1.409       .  A
C470       Br475   1.924       .  S
C471        C472   1.411       .  A
C472       Br473   1.918       .  S
C477        C478   1.418       .  A
C477        C482   1.412       .  A
C477       Br484   1.937       .  S
C478        C479   1.410       .  A
C479        C480   1.412       .  A
C479       Br486   1.923       .  S
C480        C481   1.421       .  A
C480       Br485   1.934       .  S
C481        C482   1.422       .  A
C482       Br483   1.938       .  S
C487        C488   1.406       .  A
C487        C492   1.413       .  A
C487       Br494   1.932       .  S
C488        C489   1.411       .  A
C489        C490   1.411       .  A
C489       Br496   1.923       .  S
C490        C491   1.412       .  A
C490       Br495   1.923       .  S
C491        C492   1.421       .  A
C492       Br493   1.923       .  S
C497        C498   1.412       .  A
C497        C502   1.418       .  A
C497       Br504   1.930       .  S
C498        C499   1.405       .  A
C499        C500   1.403       .  A
C499       Br506   1.932       .  S
C500        C501   1.419       .  A
C500       Br505   1.927       .  S
C501        C502   1.416       .  A
C502       Br503   1.920       .  S
C507        C508   1.406       .  A
C507        C512   1.413       .  A
C507       Br514   1.933       .  S
C508        C509   1.405       .  A
C509        C510   1.413       .  A
C509       Br516   1.933       .  S
C510        C511   1.420       .  A
C510       Br515   1.920       .  S
C511        C512   1.421       .  A
C512       Br513   1.926       .  S
C517        C518   1.406       .  A
C517        C522   1.410       .  A
C517       Br524   1.928       .  S
C518        C519   1.405       .  A
C519        C520   1.407       .  A
C519       Br526   1.932       .  S
C520        C521   1.421       .  A
C520       Br525   1.935       .  S
C521        C522   1.415       .  A
C522       Br523   1.921       .  S
C527        C528   1.418       .  A
C527        C532   1.416       .  A
C527       Br534   1.927       .  S
C528       N1160   1.458       .  S
C528        C529   1.412       .  A
C529        C530   1.411       .  A
C529      Br1304   1.921       .  S
C530        C531   1.421       .  A
C530       Br535   1.943       .  S
C531        C532   1.416       .  A
C532       Br533   1.933       .  S
Br536      C1297   1.921       .  S
C537        C538   1.425       .  A
C537        C542   1.409       .  A
C537       Br544   1.937       .  S
C538        C539   1.416       .  A
C539        C540   1.416       .  A
C539       Br546   1.919       .  S
C540        C541   1.407       .  A
C540       Br929   1.929   1_455  S
C541        C542   1.404       .  A
C542       Br543   1.934       .  S
Br545       C924   1.929       .  S
C547        C548   1.405       .  A
C547        C552   1.407       .  A
C547       Br554   1.930       .  S
C548        C549   1.413       .  A
C549        C550   1.411       .  A
C549       Br556   1.930       .  S
C550        C551   1.407       .  A
C550       Br747   1.919       .  S
C551        C552   1.418       .  A
C552       Br553   1.934       .  S
Br555       C742   1.919   1_554  S
C557        C558   1.423       .  A
C557        C562   1.411       .  A
C557       Br756   1.935       .  S
C558        C559   1.415       .  A
C559        C560   1.411       .  A
C559      Br1334   1.919       .  S
C560        C561   1.413       .  A
C560       Br565   1.936       .  S
C561        C562   1.413       .  A
C562       Br563   1.934       .  S
Br564       C749   1.935       .  S
Br566      C1327   1.919   1_455  S
C567       C1336   1.414       .  A
C567        C572   1.407       .  A
C567       Br574   1.923       .  S
C568       C1335   1.414   1_455  A
C568        C569   1.411       .  A
C569        C570   1.415       .  A
C569       Br576   1.923   1_554  S
C570        C571   1.414       .  A
C570       Br575   1.931       .  S
C571       C1340   1.409   1_455  A
C572       C1339   1.409       .  A
C572       Br573   1.935       .  S
N577        C743   1.446   1_655  S
N577       C1349   1.369       .  A
C578        C760   1.494   1_655  S
C578       C1347   1.381       .  A
C579       C1346   1.381       .  A
C579        C580   1.375       .  A
C579        H582   1.080       .  S
C580        H583   1.084       .  S
C581       N1345   1.369       .  A
C581        C750   1.508       .  S
N584       C1488   1.458       .  S
N584        C588   1.372       .  A
C585        C730   1.502       .  S
C585        C586   1.383       .  A
C586        C587   1.363       .  A
C586        H589   1.082       .  S
C587        H590   1.082       .  S
C588        C713   1.497   1_554  S
Fe591       O607   2.076       .  S
Fe591       O597   2.053       .  S
Fe591       O604   2.080       .  S
Fe591       O596   2.102       .  S
Fe591       O602   1.965       .  S
Fe592       O595   2.078       .  S
Fe592       O599   2.081       .  S
Fe592       O603   2.077       .  S
Fe592       O608   2.077       .  S
Fe592       O602   1.954       .  S
Fe593       O611   2.057       .  S
Fe593       O598   2.068       .  S
Fe593       O605   2.100       .  S
Fe593       O594   2.050       .  S
Fe593       O602   1.956       .  S
O594        C601   1.260       .  A
O595        C609   1.272       .  A
O596        C601   1.272       .  A
O597        C600   1.270       .  A
O598        C610   1.270       .  A
O599        C612   1.270       .  A
C600        C753   1.493       .  S
C600        O605   1.278       .  A
C601        C723   1.502       .  S
O603        C606   1.275       .  A
O604        C606   1.276       .  A
C606        C690   1.486       .  S
O607        C612   1.269       .  A
O608        C610   1.272       .  A
C609        C740   1.480       .  S
C609        O611   1.266       .  A
C610        C710   1.476       .  S
C612        C700   1.482       .  S
N613        C683   1.453       .  S
N613        C617   1.368       .  A
N613        C614   1.372       .  A
C614        C703   1.504       .  S
C614        C615   1.382       .  A
C615        C616   1.372       .  A
C615        H618   1.081       .  S
C616        C617   1.383       .  A
C616        H619   1.083       .  S
C617        C670   1.502       .  S
N620        C653   1.448       .  S
N620        C624   1.364       .  A
N620        C621   1.367       .  A
C621        C693   1.500       .  S
C621        C622   1.388       .  A
C622        C623   1.374       .  A
C622        H625   1.082       .  S
C623        C624   1.377       .  A
C623        H626   1.083       .  S
C624        C663   1.495       .  S
Fe627       O643   2.067       .  S
Fe627       O633   2.079       .  S
Fe627      O1406   1.973       .  S
Fe628       O631   2.072       .  S
Fe628       O635   2.069       .  S
Fe628       O638   1.980       .  S
Fe629       O647   2.080       .  S
Fe629      O1409   2.088   1_455  S
Fe629      O1014   2.063   1_465  S
Fe629       O638   1.971       .  S
O630      Fe1013   2.063       .  S
O630        C637   1.262       .  A
O631        C645   1.269       .  A
O632        C637   1.266       .  A
O633        C636   1.277       .  A
O634        C646   1.271       .  A
O635        C648   1.266       .  A
C636        C673   1.507       .  S
C636        O641   1.278       .  A
C637        C650   1.496       .  S
O638      Fe1395   1.973   1_455  S
O639        C642   1.275       .  A
O640       C1410   1.275       .  A
O641      Fe1397   2.088       .  S
C642        C733   1.483       .  S
C642       O1408   1.275   1_455  A
O643       C1416   1.267       .  A
O644        C646   1.267       .  A
C645        C680   1.489       .  S
C645        O647   1.270       .  A
C646        C660   1.500       .  S
C648        C763   1.488       .  S
C648       O1411   1.267   1_455  A
C649        C650   1.420       .  A
C649        C654   1.415       .  A
C650        C651   1.414       .  A
C651        C652   1.409       .  A
C651       Br658   1.931       .  S
C652        C653   1.413       .  A
C652       Br657   1.932       .  S
C653        C654   1.405       .  A
C654       Br655   1.921       .  S
C659        C660   1.419       .  A
C659        C664   1.408       .  A
C659       Br666   1.941       .  S
C660        C661   1.425       .  A
C661        C662   1.411       .  A
C661       Br668   1.940       .  S
C662        C663   1.409       .  A
C662       Br667   1.924       .  S
C663        C664   1.411       .  A
C664       Br665   1.918       .  S
C669        C670   1.418       .  A
C669        C674   1.412       .  A
C669       Br676   1.937       .  S
C670        C671   1.410       .  A
C671        C672   1.412       .  A
C671       Br678   1.923       .  S
C672        C673   1.421       .  A
C672       Br677   1.934       .  S
C673        C674   1.422       .  A
C674       Br675   1.938       .  S
C679        C680   1.406       .  A
C679        C684   1.413       .  A
C679       Br686   1.932       .  S
C680        C681   1.411       .  A
C681        C682   1.411       .  A
C681       Br688   1.923       .  S
C682        C683   1.412       .  A
C682       Br687   1.923       .  S
C683        C684   1.421       .  A
C684       Br685   1.923       .  S
C689        C690   1.412       .  A
C689        C694   1.418       .  A
C689       Br696   1.930       .  S
C690        C691   1.405       .  A
C691        C692   1.403       .  A
C691       Br698   1.932       .  S
C692        C693   1.419       .  A
C692       Br697   1.927       .  S
C693        C694   1.416       .  A
C694       Br695   1.920       .  S
C699        C700   1.406       .  A
C699        C704   1.413       .  A
C699       Br706   1.933       .  S
C700        C701   1.405       .  A
C701        C702   1.413       .  A
C701       Br708   1.933       .  S
C702        C703   1.420       .  A
C702       Br707   1.920       .  S
C703        C704   1.421       .  A
C704       Br705   1.926       .  S
C709        C710   1.406       .  A
C709        C714   1.410       .  A
C709       Br716   1.928       .  S
C710        C711   1.405       .  A
C711        C712   1.407       .  A
C711       Br718   1.932       .  S
C712        C713   1.421       .  A
C712       Br717   1.935       .  S
C713        C714   1.415       .  A
C714       Br715   1.921   1_556  S
C719        C720   1.418   1_556  A
C719        C724   1.416       .  A
C719       Br726   1.927       .  S
C720       N1352   1.458       .  S
C720        C721   1.412       .  A
C721        C722   1.411       .  A
C721      Br1496   1.921       .  S
C722        C723   1.421   1_554  A
C722       Br727   1.943       .  S
C723        C724   1.416       .  A
C724       Br725   1.933       .  S
Br728      C1489   1.921       .  S
C729        C730   1.425       .  A
C729        C734   1.409       .  A
C729       Br736   1.937       .  S
C730        C731   1.416       .  A
C731        C732   1.416       .  A
C731       Br738   1.919       .  S
C732        C733   1.407       .  A
C732      Br1121   1.929   1_455  S
C733        C734   1.404       .  A
C734       Br735   1.934       .  S
Br737      C1116   1.929       .  S
C739        C740   1.405       .  A
C739        C744   1.407       .  A
C739       Br746   1.930       .  S
C740        C741   1.413       .  A
C741        C742   1.411       .  A
C741       Br748   1.930   1_556  S
C742        C743   1.407       .  A
C743        C744   1.418       .  A
C744       Br745   1.934       .  S
C749        C750   1.423       .  A
C749        C754   1.411       .  A
C750        C751   1.415       .  A
C751        C752   1.411       .  A
C751      Br1526   1.919       .  S
C752        C753   1.413       .  A
C752       Br757   1.936       .  S
C753        C754   1.413       .  A
C754       Br755   1.934       .  S
Br758      C1519   1.919   1_455  S
C759       C1528   1.414       .  A
C759        C764   1.407       .  A
C759       Br766   1.923       .  S
C760       C1527   1.414   1_455  A
C760        C761   1.411       .  A
C761        C762   1.415       .  A
C761       Br768   1.923       .  S
C762        C763   1.414       .  A
C762       Br767   1.931       .  S
C763       C1532   1.409   1_455  A
C764       C1531   1.409       .  A
C764       Br765   1.935       .  S
N769        C935   1.446       .  S
N769        C962   1.361       .  A
C770        N961   1.361       .  A
C770        C952   1.494   1_556  S
C771        C772   1.375       .  A
C771        H774   1.080       .  S
C772        C965   1.385       .  A
C772        H775   1.084       .  S
C773        C942   1.508       .  S
C773        C964   1.385       .  A
N776        C780   1.372       .  A
N776        C969   1.377       .  A
C777        N968   1.377       .  A
C777        C922   1.502       .  S
C777        C778   1.383       .  A
C778        C779   1.363       .  A
C778        H781   1.082       .  S
C779        C972   1.380       .  A
C779        H782   1.082       .  S
C780        C905   1.497       .  S
C780        C971   1.380       .  A
Fe783       O799   2.076       .  S
Fe783       O789   2.053       .  S
Fe783       O796   2.080       .  S
Fe783       O788   2.102       .  S
Fe783       O794   1.965       .  S
Fe784       O787   2.078       .  S
Fe784       O791   2.081       .  S
Fe784       O795   2.077       .  S
Fe784       O800   2.077       .  S
Fe784       O794   1.954       .  S
Fe785       O803   2.057       .  S
Fe785       O790   2.068       .  S
Fe785       O797   2.100       .  S
Fe785       O786   2.050       .  S
Fe785       O794   1.956       .  S
O786        C793   1.260       .  A
O787        C801   1.272       .  A
O788        C793   1.272       .  A
O789        C792   1.270       .  A
O790        C802   1.270       .  A
O791        C804   1.271       .  A
C792        C945   1.493       .  S
C792        O797   1.278       .  A
C793        C915   1.502       .  S
O795        C798   1.275       .  A
O796        C798   1.276       .  A
C798        C882   1.486       .  S
O799        C804   1.270       .  A
O800        C802   1.272       .  A
C801        C932   1.480       .  S
C801        O803   1.266       .  A
C802        C902   1.476       .  S
C804        C892   1.482       .  S
N805        C875   1.453       .  S
N805        C809   1.368       .  A
N805        C806   1.372       .  A
C806        C895   1.504       .  S
C806        C807   1.382       .  A
C807        C808   1.372       .  A
C807        H810   1.081       .  S
C808        C809   1.383       .  A
C808        H811   1.083       .  S
C809        C862   1.502       .  S
N812        C845   1.448       .  S
N812        C816   1.364       .  A
N812        C813   1.367       .  A
C813        C885   1.500       .  S
C813        C814   1.388       .  A
C814        C815   1.374       .  A
C814        H817   1.082       .  S
C815        C816   1.377       .  A
C815        H818   1.083       .  S
C816        C855   1.495       .  S
Fe819       O835   2.067       .  S
Fe819       O825   2.079       .  S
Fe819      O1216   2.084       .  S
Fe819      O1208   2.077       .  S
Fe820       O823   2.072       .  S
Fe820       O827   2.069       .  S
Fe820      O1215   2.081       .  S
Fe820      O1220   2.064       .  S
Fe820       O830   1.980       .  S
Fe821       O839   2.080       .  S
Fe821      O1210   2.069       .  S
Fe821       O830   1.971       .  S
O822        C829   1.262       .  A
O823        C837   1.269       .  A
O824      Fe1203   2.077   1_545  S
O824        C829   1.266       .  A
O825        C828   1.277       .  A
O826      Fe1205   2.069   1_545  S
O826        C838   1.271       .  A
O827        C840   1.266       .  A
C828        C865   1.507       .  S
C828        O833   1.278       .  A
C829        C842   1.496       .  S
O831      Fe1204   2.081   1_545  S
O831        C834   1.275       .  A
O832      Fe1203   2.084   1_545  S
C834        C925   1.483       .  S
O836      Fe1204   2.065       .  S
O836        C838   1.267   1_565  A
C837        C872   1.489       .  S
C837        O839   1.270       .  A
C838        C852   1.500       .  S
C840        C955   1.488       .  S
C841        C842   1.420       .  A
C841        C846   1.415       .  A
C841      Br1232   1.931       .  S
C842        C843   1.414       .  A
C843        C844   1.409       .  A
C843       Br850   1.931       .  S
C844        C845   1.413       .  A
C844       Br849   1.932       .  S
C845        C846   1.405       .  A
C846       Br847   1.921       .  S
Br848      C1225   1.931       .  S
C851        C852   1.419       .  A
C851        C856   1.408       .  A
C851       Br858   1.941       .  S
C852        C853   1.425       .  A
C853        C854   1.411       .  A
C853       Br860   1.940       .  S
C854        C855   1.409       .  A
C854       Br859   1.924       .  S
C855        C856   1.411       .  A
C856       Br857   1.918       .  S
C861        C862   1.418       .  A
C861        C866   1.412       .  A
C861       Br868   1.937       .  S
C862        C863   1.410       .  A
C863        C864   1.412       .  A
C863       Br870   1.923       .  S
C864        C865   1.421       .  A
C864       Br869   1.934       .  S
C865        C866   1.422       .  A
C866       Br867   1.938   1_655  S
C871        C872   1.406       .  A
C871        C876   1.413       .  A
C871       Br878   1.932       .  S
C872        C873   1.411       .  A
C873        C874   1.411       .  A
C873       Br880   1.923       .  S
C874        C875   1.412       .  A
C874       Br879   1.923       .  S
C875        C876   1.421       .  A
C876       Br877   1.923       .  S
C881        C882   1.412       .  A
C881        C886   1.418       .  A
C881       Br888   1.930       .  S
C882        C883   1.405       .  A
C883        C884   1.403       .  A
C883       Br890   1.932       .  S
C884        C885   1.419       .  A
C884       Br889   1.927       .  S
C885        C886   1.416       .  A
C886       Br887   1.920       .  S
C891        C892   1.406       .  A
C891        C896   1.413       .  A
C891       Br898   1.933       .  S
C892        C893   1.405       .  A
C893        C894   1.413       .  A
C893       Br900   1.933       .  S
C894        C895   1.420       .  A
C894       Br899   1.920       .  S
C895        C896   1.421       .  A
C896       Br897   1.926       .  S
C901        C902   1.406       .  A
C901        C906   1.410       .  A
C901       Br908   1.928       .  S
C902        C903   1.405       .  A
C903        C904   1.407       .  A
C903       Br910   1.932       .  S
C904        C905   1.421       .  A
C904       Br909   1.935       .  S
C905        C906   1.415       .  A
C906       Br907   1.921       .  S
C911        C912   1.418       .  A
C911        C916   1.416   1_455  A
C911       Br918   1.927       .  S
C912        C913   1.412   1_455  A
C913        C914   1.411       .  A
C914        C915   1.421       .  A
C914       Br919   1.943       .  S
C915        C916   1.416       .  A
C916       Br917   1.933       .  S
C921        C922   1.425       .  A
C921        C926   1.409       .  A
C921       Br928   1.937       .  S
C922        C923   1.416       .  A
C923        C924   1.416       .  A
C923       Br930   1.919       .  S
C924        C925   1.407       .  A
C925        C926   1.404       .  A
C926       Br927   1.934       .  S
C931        C932   1.405       .  A
C931        C936   1.407       .  A
C931       Br938   1.930       .  S
C932        C933   1.413       .  A
C933        C934   1.411       .  A
C933       Br940   1.930       .  S
C934        C935   1.407       .  A
C934      Br1131   1.919       .  S
C935        C936   1.418       .  A
C936       Br937   1.934       .  S
Br939      C1126   1.919   1_554  S
C941        C942   1.423       .  A
C941        C946   1.411       .  A
C941      Br1140   1.935       .  S
C942        C943   1.415       .  A
C943        C944   1.411       .  A
C944        C945   1.413       .  A
C944       Br949   1.936       .  S
C945        C946   1.413       .  A
C946       Br947   1.934       .  S
Br948      C1133   1.935       .  S
C951        C956   1.407       .  A
C951       Br958   1.923       .  S
C952        C953   1.411       .  A
C953        C954   1.415       .  A
C953       Br960   1.923   1_554  S
C954        C955   1.414       .  A
C954       Br959   1.931       .  S
C956       Br957   1.935       .  S
N961       C1127   1.446       .  S
C962       C1144   1.494       .  S
C963        C964   1.375       .  A
C963        H966   1.080       .  S
C964        H967   1.084       .  S
C965       C1134   1.508       .  S
N968        C972   1.372       .  A
C969       C1114   1.502       .  S
C969        C970   1.383       .  A
C970        C971   1.363       .  A
C970        H973   1.082       .  S
C971        H974   1.082       .  S
C972       C1097   1.497   1_554  S
Fe975       O991   2.076       .  S
Fe975       O981   2.053       .  S
Fe975       O988   2.080       .  S
Fe975       O980   2.102       .  S
Fe975       O986   1.965       .  S
Fe976       O979   2.078       .  S
Fe976       O983   2.081       .  S
Fe976       O987   2.077       .  S
Fe976       O992   2.077       .  S
Fe976       O986   1.954       .  S
Fe977       O995   2.057       .  S
Fe977       O982   2.068       .  S
Fe977       O989   2.100       .  S
Fe977       O978   2.050       .  S
Fe977       O986   1.956       .  S
O978        C985   1.260       .  A
O979        C993   1.272       .  A
O980        C985   1.272       .  A
O981        C984   1.270       .  A
O982        C994   1.270       .  A
O983        C996   1.271       .  A
C984       C1137   1.493       .  S
C984        O989   1.278       .  A
C985       C1107   1.502       .  S
O987        C990   1.275       .  A
O988        C990   1.276       .  A
C990       C1074   1.486       .  S
O991        C996   1.270       .  A
O992        C994   1.272       .  A
C993       C1124   1.480       .  S
C993        O995   1.266       .  A
C994       C1094   1.476       .  S
C996       C1084   1.482       .  S
N997       C1067   1.453       .  S
N997       C1001   1.368       .  A
N997        C998   1.372       .  A
C998       C1087   1.504       .  S
C998        C999   1.382       .  A
C999       C1000   1.372       .  A
C999       H1002   1.081       .  S
C1000      C1001   1.383       .  A
C1000      H1003   1.083       .  S
C1001      C1054   1.502       .  S
N1004      C1037   1.448       .  S
N1004      C1008   1.364       .  A
N1004      C1005   1.367       .  A
C1005      C1077   1.500       .  S
C1005      C1006   1.388       .  A
C1006      C1007   1.374       .  A
C1006      H1009   1.082       .  S
C1007      C1008   1.377       .  A
C1007      H1010   1.083       .  S
C1008      C1047   1.495       .  S
Fe1011     O1027   2.067       .  S
Fe1011     O1017   2.079       .  S
Fe1011     O1408   2.084       .  S
Fe1011     O1400   2.077       .  S
Fe1012     O1015   2.072       .  S
Fe1012     O1019   2.069       .  S
Fe1012     O1407   2.081       .  S
Fe1012     O1412   2.065       .  S
Fe1012     O1022   1.980       .  S
Fe1013     O1031   2.080       .  S
Fe1013     O1402   2.069       .  S
Fe1013     O1022   1.971       .  S
O1014      C1021   1.262       .  A
O1015      C1029   1.269       .  A
O1016     Fe1395   2.077   1_545  S
O1016      C1021   1.266       .  A
O1017      C1020   1.277       .  A
O1018     Fe1397   2.069   1_545  S
O1018      C1030   1.271       .  A
O1019      C1032   1.266       .  A
C1020      C1057   1.507       .  S
C1020      O1025   1.278       .  A
C1021      C1034   1.496       .  S
O1023     Fe1396   2.081   1_545  S
O1023      C1026   1.275       .  A
O1024     Fe1395   2.084   1_545  S
C1026      C1117   1.483       .  S
O1028     Fe1396   2.065       .  S
O1028      C1030   1.267   1_565  A
C1029      C1064   1.489       .  S
C1029      O1031   1.270       .  A
C1030      C1044   1.500       .  S
C1032      C1147   1.488       .  S
C1033      C1034   1.420       .  A
C1033      C1038   1.415       .  A
C1033     Br1424   1.931       .  S
C1034      C1035   1.414       .  A
C1035      C1036   1.409       .  A
C1035     Br1042   1.931       .  S
C1036      C1037   1.413       .  A
C1036     Br1041   1.932       .  S
C1037      C1038   1.405       .  A
C1038     Br1039   1.921       .  S
Br1040     C1417   1.931       .  S
C1043      C1044   1.419       .  A
C1043      C1048   1.408       .  A
C1043     Br1050   1.941       .  S
C1044      C1045   1.425       .  A
C1045      C1046   1.411       .  A
C1045     Br1052   1.940       .  S
C1046      C1047   1.409       .  A
C1046     Br1051   1.924       .  S
C1047      C1048   1.411       .  A
C1048     Br1049   1.918       .  S
C1053      C1054   1.418       .  A
C1053      C1058   1.412       .  A
C1053     Br1060   1.937       .  S
C1054      C1055   1.410       .  A
C1055      C1056   1.412       .  A
C1055     Br1062   1.923       .  S
C1056      C1057   1.421       .  A
C1056     Br1061   1.934       .  S
C1057      C1058   1.422       .  A
C1058     Br1059   1.938   1_655  S
C1063      C1064   1.406       .  A
C1063      C1068   1.413       .  A
C1063     Br1070   1.932       .  S
C1064      C1065   1.411       .  A
C1065      C1066   1.411       .  A
C1065     Br1072   1.923       .  S
C1066      C1067   1.412       .  A
C1066     Br1071   1.923       .  S
C1067      C1068   1.421       .  A
C1068     Br1069   1.923       .  S
C1073      C1074   1.412       .  A
C1073      C1078   1.418       .  A
C1073     Br1080   1.930       .  S
C1074      C1075   1.405       .  A
C1075      C1076   1.403       .  A
C1075     Br1082   1.932       .  S
C1076      C1077   1.419       .  A
C1076     Br1081   1.927       .  S
C1077      C1078   1.416       .  A
C1078     Br1079   1.920       .  S
C1083      C1084   1.406       .  A
C1083      C1088   1.413       .  A
C1083     Br1090   1.933       .  S
C1084      C1085   1.405       .  A
C1085      C1086   1.413       .  A
C1085     Br1092   1.933       .  S
C1086      C1087   1.420       .  A
C1086     Br1091   1.920       .  S
C1087      C1088   1.421       .  A
C1088     Br1089   1.926       .  S
C1093      C1094   1.406       .  A
C1093      C1098   1.410       .  A
C1093     Br1100   1.928       .  S
C1094      C1095   1.405       .  A
C1095      C1096   1.407       .  A
C1095     Br1102   1.932       .  S
C1096      C1097   1.421       .  A
C1096     Br1101   1.935       .  S
C1097      C1098   1.415       .  A
C1098     Br1099   1.921   1_556  S
C1103      C1104   1.418   1_556  A
C1103      C1108   1.416   1_455  A
C1103     Br1110   1.927       .  S
C1104      C1105   1.412   1_455  A
C1105      C1106   1.411       .  A
C1106      C1107   1.421   1_554  A
C1106     Br1111   1.943       .  S
C1107      C1108   1.416       .  A
C1108     Br1109   1.933       .  S
C1113      C1114   1.425       .  A
C1113      C1118   1.409       .  A
C1113     Br1120   1.937       .  S
C1114      C1115   1.416       .  A
C1115      C1116   1.416       .  A
C1115     Br1122   1.919       .  S
C1116      C1117   1.407       .  A
C1117      C1118   1.404       .  A
C1118     Br1119   1.934       .  S
C1123      C1124   1.405       .  A
C1123      C1128   1.407       .  A
C1123     Br1130   1.930       .  S
C1124      C1125   1.413       .  A
C1125      C1126   1.411       .  A
C1125     Br1132   1.930   1_556  S
C1126      C1127   1.407       .  A
C1127      C1128   1.418       .  A
C1128     Br1129   1.934       .  S
C1133      C1134   1.423       .  A
C1133      C1138   1.411       .  A
C1134      C1135   1.415       .  A
C1135      C1136   1.411       .  A
C1136      C1137   1.413       .  A
C1136     Br1141   1.936       .  S
C1137      C1138   1.413       .  A
C1138     Br1139   1.934       .  S
C1143      C1148   1.407       .  A
C1143     Br1150   1.923       .  S
C1144      C1145   1.411       .  A
C1145      C1146   1.415       .  A
C1145     Br1152   1.923       .  S
C1146      C1147   1.414       .  A
C1146     Br1151   1.931       .  S
C1148     Br1149   1.935       .  S
N1153      C1319   1.446       .  S
N1153      C1346   1.361       .  A
C1154      N1345   1.361       .  A
C1154      C1336   1.494   1_556  S
C1155      C1156   1.375       .  A
C1155      H1158   1.080       .  S
C1156      C1349   1.385       .  A
C1156      H1159   1.084       .  S
C1157      C1326   1.508       .  S
C1157      C1348   1.385       .  A
N1160      C1164   1.372       .  A
N1160      C1353   1.377       .  A
C1161      N1352   1.377       .  A
C1161      C1306   1.502       .  S
C1161      C1162   1.383       .  A
C1162      C1163   1.363       .  A
C1162      H1165   1.082       .  S
C1163      C1356   1.380       .  A
C1163      H1166   1.082       .  S
C1164      C1289   1.497       .  S
C1164      C1355   1.380       .  A
Fe1167     O1183   2.076       .  S
Fe1167     O1173   2.053       .  S
Fe1167     O1180   2.080       .  S
Fe1167     O1172   2.102       .  S
Fe1167     O1178   1.965       .  S
Fe1168     O1171   2.078       .  S
Fe1168     O1175   2.081       .  S
Fe1168     O1179   2.077       .  S
Fe1168     O1184   2.077       .  S
Fe1168     O1178   1.954       .  S
Fe1169     O1187   2.057       .  S
Fe1169     O1174   2.068       .  S
Fe1169     O1181   2.100       .  S
Fe1169     O1170   2.050       .  S
Fe1169     O1178   1.956       .  S
O1170      C1177   1.260       .  A
O1171      C1185   1.272       .  A
O1172      C1177   1.272       .  A
O1173      C1176   1.270       .  A
O1174      C1186   1.270       .  A
O1175      C1188   1.270       .  A
C1176      C1329   1.493       .  S
C1176      O1181   1.278       .  A
C1177      C1299   1.502       .  S
O1179      C1182   1.275       .  A
O1180      C1182   1.276       .  A
C1182      C1266   1.486       .  S
O1183      C1188   1.269       .  A
O1184      C1186   1.272       .  A
C1185      C1316   1.480       .  S
C1185      O1187   1.266       .  A
C1186      C1286   1.476       .  S
C1188      C1276   1.482       .  S
N1189      C1259   1.453       .  S
N1189      C1193   1.368       .  A
N1189      C1190   1.372       .  A
C1190      C1279   1.504       .  S
C1190      C1191   1.382       .  A
C1191      C1192   1.372       .  A
C1191      H1194   1.081       .  S
C1192      C1193   1.383       .  A
C1192      H1195   1.083       .  S
C1193      C1246   1.502       .  S
N1196      C1229   1.448       .  S
N1196      C1200   1.364       .  A
N1196      C1197   1.367       .  A
C1197      C1269   1.500       .  S
C1197      C1198   1.388       .  A
C1198      C1199   1.374       .  A
C1198      H1201   1.082       .  S
C1199      C1200   1.377       .  A
C1199      H1202   1.083       .  S
C1200      C1239   1.495       .  S
Fe1203     O1219   2.067       .  S
Fe1203     O1209   2.079       .  S
Fe1204     O1207   2.072       .  S
Fe1204     O1211   2.069       .  S
Fe1204     O1214   1.980       .  S
Fe1205     O1223   2.080       .  S
Fe1205     O1214   1.971       .  S
O1206      C1213   1.262       .  A
O1207      C1221   1.269       .  A
O1208      C1213   1.266       .  A
O1209      C1212   1.277       .  A
O1210      C1222   1.271       .  A
O1211      C1224   1.266       .  A
C1212      C1249   1.507       .  S
C1212      O1217   1.278       .  A
C1213      C1226   1.496       .  S
O1215      C1218   1.275       .  A
C1218      C1309   1.483       .  S
O1220      C1222   1.267       .  A
C1221      C1256   1.489       .  S
C1221      O1223   1.270       .  A
C1222      C1236   1.500       .  S
C1224      C1339   1.488       .  S
C1225      C1226   1.420       .  A
C1225      C1230   1.415       .  A
C1226      C1227   1.414       .  A
C1227      C1228   1.409       .  A
C1227     Br1234   1.931       .  S
C1228      C1229   1.413       .  A
C1228     Br1233   1.932       .  S
C1229      C1230   1.405       .  A
C1230     Br1231   1.921       .  S
C1235      C1236   1.419       .  A
C1235      C1240   1.408       .  A
C1235     Br1242   1.941       .  S
C1236      C1237   1.425       .  A
C1237      C1238   1.411       .  A
C1237     Br1244   1.940       .  S
C1238      C1239   1.409       .  A
C1238     Br1243   1.924       .  S
C1239      C1240   1.411       .  A
C1240     Br1241   1.918       .  S
C1245      C1246   1.418       .  A
C1245      C1250   1.412       .  A
C1245     Br1252   1.937       .  S
C1246      C1247   1.410       .  A
C1247      C1248   1.412       .  A
C1247     Br1254   1.923       .  S
C1248      C1249   1.421       .  A
C1248     Br1253   1.934       .  S
C1249      C1250   1.422       .  A
C1250     Br1251   1.938   1_655  S
C1255      C1256   1.406       .  A
C1255      C1260   1.413       .  A
C1255     Br1262   1.932       .  S
C1256      C1257   1.411       .  A
C1257      C1258   1.411       .  A
C1257     Br1264   1.923       .  S
C1258      C1259   1.412       .  A
C1258     Br1263   1.923       .  S
C1259      C1260   1.421       .  A
C1260     Br1261   1.923       .  S
C1265      C1266   1.412       .  A
C1265      C1270   1.418       .  A
C1265     Br1272   1.930       .  S
C1266      C1267   1.405       .  A
C1267      C1268   1.403       .  A
C1267     Br1274   1.932       .  S
C1268      C1269   1.419       .  A
C1268     Br1273   1.927       .  S
C1269      C1270   1.416       .  A
C1270     Br1271   1.920       .  S
C1275      C1276   1.406       .  A
C1275      C1280   1.413       .  A
C1275     Br1282   1.933       .  S
C1276      C1277   1.405       .  A
C1277      C1278   1.413       .  A
C1277     Br1284   1.933       .  S
C1278      C1279   1.420       .  A
C1278     Br1283   1.920       .  S
C1279      C1280   1.421       .  A
C1280     Br1281   1.926       .  S
C1285      C1286   1.406       .  A
C1285      C1290   1.410       .  A
C1285     Br1292   1.928       .  S
C1286      C1287   1.405       .  A
C1287      C1288   1.407       .  A
C1287     Br1294   1.932       .  S
C1288      C1289   1.421       .  A
C1288     Br1293   1.935       .  S
C1289      C1290   1.415       .  A
C1290     Br1291   1.921       .  S
C1295      C1296   1.418       .  A
C1295      C1300   1.416   1_455  A
C1295     Br1302   1.927       .  S
C1296      C1297   1.412   1_455  A
C1297      C1298   1.411       .  A
C1298      C1299   1.421       .  A
C1298     Br1303   1.943       .  S
C1299      C1300   1.416       .  A
C1300     Br1301   1.933       .  S
C1305      C1306   1.425       .  A
C1305      C1310   1.409       .  A
C1305     Br1312   1.937       .  S
C1306      C1307   1.416       .  A
C1307      C1308   1.416       .  A
C1307     Br1314   1.919       .  S
C1308      C1309   1.407       .  A
C1309      C1310   1.404       .  A
C1310     Br1311   1.934       .  S
C1315      C1316   1.405       .  A
C1315      C1320   1.407       .  A
C1315     Br1322   1.930       .  S
C1316      C1317   1.413       .  A
C1317      C1318   1.411       .  A
C1317     Br1324   1.930       .  S
C1318      C1319   1.407       .  A
C1318     Br1515   1.919       .  S
C1319      C1320   1.418       .  A
C1320     Br1321   1.934       .  S
Br1323     C1510   1.919   1_554  S
C1325      C1326   1.423       .  A
C1325      C1330   1.411       .  A
C1325     Br1524   1.935       .  S
C1326      C1327   1.415       .  A
C1327      C1328   1.411       .  A
C1328      C1329   1.413       .  A
C1328     Br1333   1.936       .  S
C1329      C1330   1.413       .  A
C1330     Br1331   1.934       .  S
Br1332     C1517   1.935       .  S
C1335      C1340   1.407       .  A
C1335     Br1342   1.923       .  S
C1336      C1337   1.411       .  A
C1337      C1338   1.415       .  A
C1337     Br1344   1.923   1_554  S
C1338      C1339   1.414       .  A
C1338     Br1343   1.931       .  S
C1340     Br1341   1.935       .  S
N1345      C1511   1.446       .  S
C1346      C1528   1.494       .  S
C1347      C1348   1.375       .  A
C1347      H1350   1.080       .  S
C1348      H1351   1.084       .  S
C1349      C1518   1.508       .  S
N1352      C1356   1.372       .  A
C1353      C1498   1.502       .  S
C1353      C1354   1.383       .  A
C1354      C1355   1.363       .  A
C1354      H1357   1.082       .  S
C1355      H1358   1.082       .  S
C1356      C1481   1.497   1_554  S
Fe1359     O1375   2.076       .  S
Fe1359     O1365   2.053       .  S
Fe1359     O1372   2.080       .  S
Fe1359     O1364   2.102       .  S
Fe1359     O1370   1.965       .  S
Fe1360     O1363   2.078       .  S
Fe1360     O1367   2.081       .  S
Fe1360     O1371   2.077       .  S
Fe1360     O1376   2.077       .  S
Fe1360     O1370   1.954       .  S
Fe1361     O1379   2.057       .  S
Fe1361     O1366   2.068       .  S
Fe1361     O1373   2.100       .  S
Fe1361     O1362   2.050       .  S
Fe1361     O1370   1.956       .  S
O1362      C1369   1.260       .  A
O1363      C1377   1.272       .  A
O1364      C1369   1.272       .  A
O1365      C1368   1.270       .  A
O1366      C1378   1.270       .  A
O1367      C1380   1.271       .  A
C1368      C1521   1.493       .  S
C1368      O1373   1.278       .  A
C1369      C1491   1.502       .  S
O1371      C1374   1.275       .  A
O1372      C1374   1.276       .  A
C1374      C1458   1.486       .  S
O1375      C1380   1.269       .  A
O1376      C1378   1.272       .  A
C1377      C1508   1.480       .  S
C1377      O1379   1.266       .  A
C1378      C1478   1.476       .  S
C1380      C1468   1.482       .  S
N1381      C1451   1.453       .  S
N1381      C1385   1.368       .  A
N1381      C1382   1.372       .  A
C1382      C1471   1.504       .  S
C1382      C1383   1.382       .  A
C1383      C1384   1.372       .  A
C1383      H1386   1.081       .  S
C1384      C1385   1.383       .  A
C1384      H1387   1.083       .  S
C1385      C1438   1.502       .  S
N1388      C1421   1.448       .  S
N1388      C1392   1.364       .  A
N1388      C1389   1.367       .  A
C1389      C1461   1.500       .  S
C1389      C1390   1.388       .  A
C1390      C1391   1.374       .  A
C1390      H1393   1.082       .  S
C1391      C1392   1.377       .  A
C1391      H1394   1.083       .  S
C1392      C1431   1.495       .  S
Fe1395     O1411   2.067       .  S
Fe1395     O1401   2.079       .  S
Fe1396     O1399   2.072       .  S
Fe1396     O1403   2.069       .  S
Fe1396     O1406   1.980       .  S
Fe1397     O1415   2.080       .  S
Fe1397     O1406   1.971       .  S
O1398      C1405   1.262       .  A
O1399      C1413   1.269       .  A
O1400      C1405   1.266       .  A
O1401      C1404   1.277       .  A
O1402      C1414   1.271       .  A
O1403      C1416   1.266       .  A
C1404      C1441   1.507       .  S
C1404      O1409   1.278       .  A
C1405      C1418   1.496       .  S
O1407      C1410   1.275       .  A
C1410      C1501   1.483       .  S
O1412      C1414   1.267       .  A
C1413      C1448   1.489       .  S
C1413      O1415   1.270       .  A
C1414      C1428   1.500       .  S
C1416      C1531   1.488       .  S
C1417      C1418   1.420       .  A
C1417      C1422   1.415       .  A
C1418      C1419   1.414       .  A
C1419      C1420   1.409       .  A
C1419     Br1426   1.931       .  S
C1420      C1421   1.413       .  A
C1420     Br1425   1.932       .  S
C1421      C1422   1.405       .  A
C1422     Br1423   1.921       .  S
C1427      C1428   1.419       .  A
C1427      C1432   1.408       .  A
C1427     Br1434   1.941       .  S
C1428      C1429   1.425       .  A
C1429      C1430   1.411       .  A
C1429     Br1436   1.940       .  S
C1430      C1431   1.409       .  A
C1430     Br1435   1.924       .  S
C1431      C1432   1.411       .  A
C1432     Br1433   1.918       .  S
C1437      C1438   1.418       .  A
C1437      C1442   1.412       .  A
C1437     Br1444   1.937       .  S
C1438      C1439   1.410       .  A
C1439      C1440   1.412       .  A
C1439     Br1446   1.923       .  S
C1440      C1441   1.421       .  A
C1440     Br1445   1.934       .  S
C1441      C1442   1.422       .  A
C1442     Br1443   1.938   1_655  S
C1447      C1448   1.406       .  A
C1447      C1452   1.413       .  A
C1447     Br1454   1.932       .  S
C1448      C1449   1.411       .  A
C1449      C1450   1.411       .  A
C1449     Br1456   1.923       .  S
C1450      C1451   1.412       .  A
C1450     Br1455   1.923       .  S
C1451      C1452   1.421       .  A
C1452     Br1453   1.923       .  S
C1457      C1458   1.412       .  A
C1457      C1462   1.418       .  A
C1457     Br1464   1.930       .  S
C1458      C1459   1.405       .  A
C1459      C1460   1.403       .  A
C1459     Br1466   1.932       .  S
C1460      C1461   1.419       .  A
C1460     Br1465   1.927       .  S
C1461      C1462   1.416       .  A
C1462     Br1463   1.920       .  S
C1467      C1468   1.406       .  A
C1467      C1472   1.413       .  A
C1467     Br1474   1.933       .  S
C1468      C1469   1.405       .  A
C1469      C1470   1.413       .  A
C1469     Br1476   1.933       .  S
C1470      C1471   1.420       .  A
C1470     Br1475   1.920       .  S
C1471      C1472   1.421       .  A
C1472     Br1473   1.926       .  S
C1477      C1478   1.406       .  A
C1477      C1482   1.410       .  A
C1477     Br1484   1.928       .  S
C1478      C1479   1.405       .  A
C1479      C1480   1.407       .  A
C1479     Br1486   1.932       .  S
C1480      C1481   1.421       .  A
C1480     Br1485   1.935       .  S
C1481      C1482   1.415       .  A
C1482     Br1483   1.921   1_556  S
C1487      C1488   1.418   1_556  A
C1487      C1492   1.416   1_455  A
C1487     Br1494   1.927       .  S
C1488      C1489   1.412   1_455  A
C1489      C1490   1.411       .  A
C1490      C1491   1.421   1_554  A
C1490     Br1495   1.943       .  S
C1491      C1492   1.416       .  A
C1492     Br1493   1.933       .  S
C1497      C1498   1.425       .  A
C1497      C1502   1.409       .  A
C1497     Br1504   1.937       .  S
C1498      C1499   1.416       .  A
C1499      C1500   1.416       .  A
C1499     Br1506   1.919       .  S
C1500      C1501   1.407       .  A
C1501      C1502   1.404       .  A
C1502     Br1503   1.934       .  S
C1507      C1508   1.405       .  A
C1507      C1512   1.407       .  A
C1507     Br1514   1.930       .  S
C1508      C1509   1.413       .  A
C1509      C1510   1.411       .  A
C1509     Br1516   1.930   1_556  S
C1510      C1511   1.407       .  A
C1511      C1512   1.418       .  A
C1512     Br1513   1.934       .  S
C1517      C1518   1.423       .  A
C1517      C1522   1.411       .  A
C1518      C1519   1.415       .  A
C1519      C1520   1.411       .  A
C1520      C1521   1.413       .  A
C1520     Br1525   1.936       .  S
C1521      C1522   1.413       .  A
C1522     Br1523   1.934       .  S
C1527      C1532   1.407       .  A
C1527     Br1534   1.923       .  S
C1528      C1529   1.411       .  A
C1529      C1530   1.415       .  A
C1529     Br1536   1.923       .  S
C1530      C1531   1.414       .  A
C1530     Br1535   1.931       .  S
C1532     Br1533   1.935       .  S
