geometry optimzed in LAMMPS
_audit_creation_date              2020-11-30 
_audit_creation_method            'lammps2cif' 
_symmetry_space_group_name_H-M    'P1' 
_symmetry_Int_Tables_number       1 
_symmetry_cell_setting            triclinic 
loop_ 
_symmetry_equiv_pos_as_xyz 
  x,y,z 
_cell_length_a                    41.54840159 
_cell_length_b                    41.55176323569513 
_cell_length_c                    26.704676181188468 
_cell_angle_alpha                 89.9519852158387 
_cell_angle_beta                  90.00357754851642 
_cell_angle_gamma                 84.86585405149677 
loop_ 
_atom_site_label 
_atom_site_type_symbol 
_atom_site_fract_x 
_atom_site_fract_y 
_atom_site_fract_z 
_atom_site_charge 
N1          N  0.50221709  0.44541186  0.09311421    -0.07000
N2          N  0.49261724  0.42530563  0.12715793    -0.59100
N3          N  0.06882225  0.47935260  0.06162870    -0.06600
N4          N  0.09990765  0.47725222  0.07263093    -0.61200
N5          N  0.05190638  0.49562508  0.09646874    -0.06200
N6          N  0.07122689  0.00508987  0.13180061    -0.59100
N7          N  0.01948235  0.42945814  0.05833210    -0.05900
N8          N  0.02219852  0.39822652  0.06814625    -0.61600
C9          C  0.50520055  0.39603043  0.11097957     0.95200
C10         C  0.10103696  0.99371324  0.11605000     0.95000
N11         N  0.05370143  0.49808897  0.40850235    -0.07200
N12         N  0.07385156  0.00883786  0.37553651    -0.59700
N13         N  0.02047470  0.43102954  0.43989590    -0.05300
N14         N  0.02222388  0.39991300  0.42923119    -0.60900
N15         N  0.50400177  0.44789218  0.40520063    -0.07200
N16         N  0.49397606  0.42855577  0.37037165    -0.59900
N17         N  0.06977771  0.48133897  0.44367310    -0.04900
N18         N  0.10110989  0.48046183  0.43549506    -0.61000
Mn19       Mn  0.04520897  0.45471831  0.00078752     1.18400
C20         C  0.10339699  0.99802583  0.39319760     0.97300
C21         C  0.50534690  0.39877008  0.38617861     0.98000
N22         N  0.99493395  0.05177221  0.09655109    -0.07200
N23         N  0.00473702  0.07124919  0.13136371    -0.63500
N24         N  0.42921038  0.01855990  0.05840790    -0.06000
N25         N  0.39791893  0.02036405  0.06770051    -0.64200
N26         N  0.44537677  0.00134103  0.09305670    -0.06700
N27         N  0.42535171  0.49083849  0.12646529    -0.63800
N28         N  0.47871964  0.06854287  0.06151150    -0.05600
N29         N  0.47722401  0.09968388  0.07169471    -0.64500
Mn30       Mn  0.99857806  0.99853483  0.09613723     1.10700
C31         C  0.99386859  0.10113693  0.11506187     0.98500
C32         C  0.39590736  0.50274990  0.10992150     0.98600
N33         N  0.44740962  0.00402209  0.40525327    -0.06700
N34         N  0.42799326  0.49344148  0.37097119    -0.62100
N35         N  0.47996115  0.07011465  0.44362765    -0.06000
N36         N  0.47811247  0.10148636  0.43527148    -0.58800
N37         N  0.99732465  0.05440266  0.40875873    -0.07300
N38         N  0.00795678  0.07490387  0.37610000    -0.61700
N39         N  0.43053459  0.02013177  0.44025037    -0.06300
N40         N  0.39936639  0.02106660  0.43039789    -0.58800
Mn41       Mn  0.50063431  0.50111814  0.40540003     1.20200
Mn42       Mn  0.45404716  0.04488274  0.50092121     1.10100
Cl43       Cl  0.99960730  0.99978180  0.00081759    -0.86800
C44         C  0.39808767  0.50398088  0.38748814     0.95500
C45         C  0.99602141  0.10414004  0.39357792     0.95300
C46         C  0.49858812  0.28000022  0.27711860     0.01400
C47         C  0.49876445  0.27895768  0.22432065     0.01400
C48         C  0.49844350  0.24926402  0.19963483    -0.19100
C49         C  0.49704035  0.22045812  0.22666574     0.01400
C50         C  0.49721401  0.22154823  0.27962384     0.01400
C51         C  0.49827816  0.25120054  0.30423937    -0.19100
H52         H  0.49852646  0.25188890  0.34483199     0.03400
H53         H  0.49884120  0.24864739  0.15904548     0.03400
C54         C  0.27994823  0.49678946  0.27576748     0.01400
C55         C  0.27900726  0.49522241  0.22302741     0.01400
C56         C  0.24925872  0.49500499  0.19841090    -0.19100
C57         C  0.22036199  0.49583012  0.22562082     0.01400
C58         C  0.22136014  0.49636283  0.27853635     0.01400
C59         C  0.25113485  0.49713715  0.30296973    -0.19100
H60         H  0.25186433  0.49842208  0.34350996     0.03400
H61         H  0.24857517  0.49448274  0.15782966     0.03400
C62         C  0.13050594  0.99453126  0.14623421    -0.07000
C63         C  0.14781248  0.02189524  0.14363038    -0.18100
C64         C  0.17698668  0.02309822  0.16952435     0.09000
C65         C  0.18939117  0.49612370  0.19807971    -0.06900
C66         C  0.17188324  0.46884985  0.20092281    -0.18100
C67         C  0.14250200  0.46785718  0.17563998     0.10300
S68         S  0.19697778  0.05981129  0.16494920    -0.33100
S69         S  0.12188162  0.43162245  0.18165934    -0.33100
H70         H  0.09036180  0.44646580  0.17603267     0.28300
H71         H  0.21207794  0.05759991  0.21207145     0.28300
H72         H  0.13857743  0.04241200  0.12115704     0.18900
H73         H  0.18120478  0.44821127  0.22306747     0.18900
C74         C  0.13403768  0.99988189  0.36565727    -0.07000
C75         C  0.15877554  0.47503516  0.37353077    -0.18100
C76         C  0.18694797  0.47285164  0.34484679     0.10200
C77         C  0.19155146  0.49698826  0.30901680    -0.06900
C78         C  0.16745107  0.02251537  0.30238471    -0.18100
C79         C  0.13864656  0.02398277  0.32957277     0.10300
S80         S  0.21516456  0.43772882  0.35396798    -0.33100
S81         S  0.10920156  0.05738350  0.31651169    -0.33100
H82         H  0.10106786  0.06267121  0.36713845     0.28300
H83         H  0.22523511  0.43507632  0.30374383     0.28300
H84         H  0.15550841  0.45607357  0.40044758     0.18900
H85         H  0.17108700  0.04149151  0.27571118     0.18900
C86         C  0.36598177  0.50109968  0.13867947    -0.07000
C87         C  0.35510615  0.47076686  0.14847063    -0.18100
C88         C  0.32635813  0.46792953  0.17481254     0.10200
C89         C  0.30860975  0.49616909  0.19289446    -0.06900
C90         C  0.31952985  0.02646404  0.18307002    -0.18100
C91         C  0.34800287  0.02924561  0.15629679     0.10300
S92         S  0.31411799  0.42760489  0.18341126    -0.33100
S93         S  0.36051544  0.06931905  0.14725238    -0.33100
H94         H  0.39388087  0.06032638  0.15077947     0.28300
H95         H  0.28556140  0.43498703  0.21060043     0.28300
H96         H  0.36886618  0.44916540  0.13478286     0.18900
H97         H  0.30593664  0.04810224  0.19694788     0.18900
C98         C  0.36794357  0.50097473  0.35933114    -0.07000
C99         C  0.34498730  0.02790087  0.35770388    -0.18100
C100        C  0.31664873  0.02744710  0.32964221     0.10200
C101        C  0.31057167  0.49916714  0.30329647    -0.06900
C102        C  0.33325493  0.47207431  0.30541897    -0.18100
C103        C  0.36178319  0.47261432  0.33320774     0.10300
S104        S  0.28941019  0.06381357  0.32869203    -0.33100
S105        S  0.38834018  0.43587535  0.33601106    -0.33100
H106        H  0.39744063  0.43964361  0.38626363     0.28300
H107        H  0.27683398  0.05939094  0.28058362     0.28300
H108        H  0.34954068  0.04982804  0.37742465     0.18900
H109        H  0.32827084  0.45004917  0.28645348     0.18900
C110        C  0.99597596  0.13145143  0.14361986    -0.07000
C111        C  0.47124876  0.15648286  0.13685599    -0.18100
C112        C  0.47040439  0.18510264  0.16450419     0.10200
C113        C  0.99556424  0.18968444  0.19872244    -0.06900
C114        C  0.02074784  0.16509072  0.20445675    -0.18100
C115        C  0.02100063  0.13595647  0.17814638     0.10300
S116        S  0.43621507  0.21441783  0.15478127    -0.33100
S117        S  0.05452329  0.10622065  0.18939367    -0.33100
H118        H  0.05910970  0.09824591  0.13854784     0.28300
H119        H  0.43552042  0.22705898  0.20354867     0.28300
H120        H  0.45171196  0.15336773  0.11091615     0.18900
H121        H  0.04089708  0.16887690  0.22872766     0.18900
C122        C  0.99717923  0.13460796  0.36604328    -0.07000
C123        C  0.46777150  0.15118839  0.35154602    -0.18100
C124        C  0.46698783  0.17983739  0.32397193     0.10200
C125        C  0.99632012  0.19214047  0.31036235    -0.06900
C126        C  0.02569183  0.17614548  0.32629876    -0.18100
C127        C  0.02645508  0.14741490  0.35370805     0.10300
S128        S  0.42791379  0.19913940  0.30690937    -0.33100
S129        S  0.06537230  0.12885518  0.37272169    -0.33100
H130        H  0.05478803  0.11504002  0.41716656     0.28300
H131        H  0.43674913  0.23095399  0.30685892     0.28300
H132        H  0.44521064  0.14152898  0.36133445     0.18900
H133        H  0.04820438  0.18600747  0.31684107     0.18900
C134        C  0.49947654  0.30860904  0.19412271    -0.07000
C135        C  0.02944741  0.31658064  0.17615563    -0.18100
C136        C  0.03211155  0.34526017  0.14979896     0.10200
C137        C  0.50402932  0.36609213  0.13996159    -0.06900
C138        C  0.47410985  0.35819281  0.15812069    -0.18100
C139        C  0.47141003  0.32948491  0.18450270     0.10300
S140        S  0.07214106  0.35482139  0.13263162    -0.33100
S141        S  0.43142045  0.32105534  0.20389617    -0.33100
H142        H  0.43774113  0.28766841  0.21126159     0.28300
H143        H  0.06643557  0.38808884  0.14256175     0.28300
H144        H  0.05104203  0.30078635  0.18412611     0.18900
H145        H  0.45256068  0.37417497  0.15069498     0.18900
C146        C  0.50368745  0.36925553  0.35648392    -0.07000
C147        C  0.97468290  0.35442866  0.35591226    -0.18100
C148        C  0.97252792  0.32505267  0.33077395     0.10200
C149        C  0.49966839  0.31080128  0.30465681    -0.06900
C150        C  0.52855434  0.32582378  0.30494213    -0.18100
C151        C  0.53089689  0.35484998  0.33056308     0.10300
S152        S  0.93538458  0.30560136  0.33297997    -0.33100
S153        S  0.56937221  0.37191374  0.32906258    -0.33100
H154        H  0.55761893  0.40429096  0.33668603     0.28300
H155        H  0.91672100  0.33087925  0.35720635     0.28300
H156        H  0.95404836  0.36549427  0.37631879     0.18900
H157        H  0.54948957  0.31471419  0.28524257     0.18900
N158        N  0.50224396  0.44540398  0.59310826    -0.07000
N159        N  0.49265102  0.42529085  0.62714753    -0.59100
N160        N  0.06881916  0.47932247  0.56159838    -0.06600
N161        N  0.09990751  0.47721223  0.57258427    -0.61200
N162        N  0.05191388  0.49559492  0.59644971    -0.06200
N163        N  0.07122692  0.00507671  0.63179517    -0.59100
N164        N  0.01945662  0.42944620  0.55831696    -0.05900
N165        N  0.02216767  0.39821327  0.56812444    -0.61600
C166        C  0.50524866  0.39602047  0.61096841     0.95200
C167        C  0.10103665  0.99370547  0.61603601     0.95000
N168        N  0.05371515  0.49809386  0.90852238    -0.07200
N169        N  0.07386689  0.00882835  0.87554949    -0.59700
N170        N  0.02054316  0.43102042  0.93987572    -0.05300
N171        N  0.02233000  0.39990779  0.92916739    -0.60900
N172        N  0.50397677  0.44790426  0.90519744    -0.07200
N173        N  0.49394282  0.42857641  0.87036294    -0.59900
N174        N  0.06979817  0.48135887  0.94370250    -0.04900
N175        N  0.10112924  0.48048429  0.93551745    -0.61000
Mn176      Mn  0.04517944  0.45470678  0.50076944     1.18400
C177        C  0.10341196  0.99801634  0.89321247     0.97300
C178        C  0.50529264  0.39878456  0.88617058     0.98000
N179        N  0.99492942  0.05175956  0.59656781    -0.07200
N180        N  0.00472280  0.07123216  0.63139445    -0.63500
N181        N  0.42922717  0.01857287  0.55840324    -0.06000
N182        N  0.39793566  0.02038358  0.56769744    -0.64200
N183        N  0.44539117  0.00134712  0.59304729    -0.06700
N184        N  0.42535420  0.49081510  0.62645109    -0.63800
N185        N  0.47875213  0.06853980  0.56151465    -0.05600
N186        N  0.47726040  0.09967875  0.57170972    -0.64500
Mn187      Mn  0.99857476  0.99852285  0.59613871     1.10700
C188        C  0.99385261  0.10112106  0.61509974     0.98500
C189        C  0.39590919  0.50272086  0.60990015     0.98600
N190        N  0.44740905  0.00399652  0.90526574    -0.06700
N191        N  0.42799654  0.49347698  0.87095040    -0.62100
N192        N  0.47993719  0.07010387  0.94362339    -0.06000
N193        N  0.47807878  0.10147419  0.93525110    -0.58800
N194        N  0.99733409  0.05438913  0.90875776    -0.07300
N195        N  0.00796749  0.07488738  0.87609683    -0.61700
N196        N  0.43052729  0.02010537  0.94025674    -0.06300
N197        N  0.39936064  0.02103900  0.93039299    -0.58800
Mn198      Mn  0.50063351  0.50112837  0.90540531     1.20200
Mn199      Mn  0.45402714  0.04487045  0.00092207     1.10100
Cl200      Cl  0.99960116  0.99978379  0.50081756    -0.86800
C201        C  0.39808984  0.50401640  0.88746045     0.95500
C202        C  0.99602686  0.10412320  0.89356686     0.95300
C203        C  0.49858121  0.28000555  0.77710441     0.01400
C204        C  0.49878883  0.27894708  0.72430657     0.01400
C205        C  0.49848066  0.24924613  0.69963855    -0.19100
C206        C  0.49706377  0.22044740  0.72668349     0.01400
C207        C  0.49721272  0.22155007  0.77964145     0.01400
C208        C  0.49826146  0.25121113  0.80424177    -0.19100
H209        H  0.49848977  0.25191045  0.84483410     0.03400
H210        H  0.49889575  0.24861831  0.65904981     0.03400
C211        C  0.27994503  0.49679305  0.77576073     0.01400
C212        C  0.27901131  0.49521089  0.72302154     0.01400
C213        C  0.24926745  0.49497513  0.69839728    -0.19100
C214        C  0.22036649  0.49581095  0.72559926     0.01400
C215        C  0.22135735  0.49636155  0.77851426     0.01400
C216        C  0.25112847  0.49714508  0.80295550    -0.19100
H217        H  0.25185264  0.49843920  0.84349514     0.03400
H218        H  0.24858978  0.49443839  0.65781645     0.03400
C219        C  0.13050745  0.99452636  0.64621494    -0.07000
C220        C  0.14781401  0.02188994  0.64360230    -0.18100
C221        C  0.17698324  0.02309970  0.66950728     0.09000
C222        C  0.18939951  0.49609624  0.69804982    -0.06900
C223        C  0.17189889  0.46881716  0.70088633    -0.18100
C224        C  0.14252249  0.46781645  0.67559196     0.10300
S225        S  0.19696486  0.05981897  0.66494616    -0.33100
S226        S  0.12190247  0.43158261  0.68162177    -0.33100
H227        H  0.09038235  0.44643568  0.67604643     0.28300
H228        H  0.21204881  0.05761217  0.71208123     0.28300
H229        H  0.13857992  0.04240328  0.62112085     0.18900
H230        H  0.18122043  0.44818232  0.72303895     0.18900
C231        C  0.13405210  0.99987201  0.86567045    -0.07000
C232        C  0.15877989  0.47503602  0.87351685    -0.18100
C233        C  0.18694706  0.47284981  0.84482118     0.10200
C234        C  0.19154650  0.49698519  0.80898801    -0.06900
C235        C  0.16745826  0.02250865  0.80239097    -0.18100
C236        C  0.13865837  0.02397610  0.82959084     0.10300
S237        S  0.21516298  0.43772492  0.85392766    -0.33100
S238        S  0.10921546  0.05738284  0.81655422    -0.33100
H239        H  0.10108930  0.06266198  0.86718596     0.28300
H240        H  0.22521386  0.43506873  0.80369420     0.28300
H241        H  0.15551621  0.45607636  0.90043877     0.18900
H242        H  0.17109075  0.04148671  0.77571934     0.18900
C243        C  0.36598293  0.50107445  0.63865801    -0.07000
C244        C  0.35508093  0.47074605  0.64839671    -0.18100
C245        C  0.32634023  0.46791370  0.67476194     0.10200
C246        C  0.30861984  0.49615282  0.69290103    -0.06900
C247        C  0.31952573  0.02646964  0.68303488    -0.18100
C248        C  0.34800344  0.02925657  0.65627446     0.10300
S249        S  0.31405242  0.42759994  0.68327193    -0.33100
S250        S  0.36051008  0.06933350  0.64724002    -0.33100
H251        H  0.39387744  0.06034706  0.65074652     0.28300
H252        H  0.28580928  0.43493966  0.71124544     0.28300
H253        H  0.36881755  0.44914491  0.63465903     0.18900
H254        H  0.30592868  0.04810558  0.69691303     0.18900
C255        C  0.36794720  0.50100301  0.85930141    -0.07000
C256        C  0.34499330  0.02788225  0.85768356    -0.18100
C257        C  0.31665718  0.02743398  0.82961349     0.10200
C258        C  0.31056669  0.49917622  0.80329260    -0.06900
C259        C  0.33326140  0.47209170  0.80539826    -0.18100
C260        C  0.36179505  0.47264179  0.83317128     0.10300
S261        S  0.28942264  0.06380409  0.82866418    -0.33100
S262        S  0.38837395  0.43591579  0.83593220    -0.33100
H263        H  0.39748884  0.43967343  0.88618029     0.28300
H264        H  0.27682430  0.05937476  0.78057225     0.28300
H265        H  0.34954534  0.04980623  0.87741396     0.18900
H266        H  0.32828595  0.45006710  0.78642247     0.18900
C267        C  0.99595373  0.13143361  0.64366121    -0.07000
C268        C  0.47128187  0.15646549  0.63688051    -0.18100
C269        C  0.47043430  0.18508545  0.66452738     0.10200
C270        C  0.99554499  0.18967836  0.69872833    -0.06900
C271        C  0.02072948  0.16508627  0.70447039    -0.18100
C272        C  0.02097752  0.13594349  0.67818585     0.10300
S273        S  0.43624747  0.21440128  0.65479087    -0.33100
S274        S  0.05448913  0.10620131  0.68947114    -0.33100
H275        H  0.05909117  0.09821604  0.63863221     0.28300
H276        H  0.43554399  0.22703957  0.70356049     0.28300
H277        H  0.45174805  0.15335094  0.61093501     0.18900
H278        H  0.04088138  0.16887835  0.72873175     0.18900
C279        C  0.99717373  0.13458544  0.86602213    -0.07000
C280        C  0.46775279  0.15117991  0.85152610    -0.18100
C281        C  0.46697627  0.17984030  0.82398090     0.10200
C282        C  0.99629122  0.19212326  0.81036066    -0.06900
C283        C  0.02566953  0.17612732  0.82626600    -0.18100
C284        C  0.02644408  0.14739462  0.85366767     0.10300
S285        S  0.42790621  0.19916063  0.80694252    -0.33100
S286        S  0.06536656  0.12884114  0.87266469    -0.33100
H287        H  0.05479392  0.11506781  0.91715111     0.28300
H288        H  0.43675001  0.23097194  0.80696674     0.28300
H289        H  0.44518926  0.14152103  0.86130046     0.18900
H290        H  0.04817806  0.18599325  0.81679631     0.18900
C291        C  0.49950825  0.30859111  0.69409049    -0.07000
C292        C  0.02942266  0.31654275  0.67609413    -0.18100
C293        C  0.03208585  0.34521994  0.64972738     0.10200
C294        C  0.50407393  0.36607549  0.63993453    -0.06900
C295        C  0.47415193  0.35817879  0.65808646    -0.18100
C296        C  0.47144501  0.32946900  0.68445915     0.10300
S297        S  0.07211150  0.35475392  0.63248798    -0.33100
S298        S  0.43144866  0.32103701  0.70381513    -0.33100
H299        H  0.43777153  0.28765425  0.71122258     0.28300
H300        H  0.06644063  0.38801953  0.64245826     0.28300
H301        H  0.05101225  0.30072813  0.68400872     0.18900
H302        H  0.45260531  0.37416427  0.65065978     0.18900
C303        C  0.50363999  0.36927707  0.85645472    -0.07000
C304        C  0.97473758  0.35440124  0.85602015    -0.18100
C305        C  0.97256644  0.32501277  0.83092181     0.10200
C306        C  0.49964315  0.31081782  0.80462450    -0.06900
C307        C  0.52852341  0.32585044  0.80491766    -0.18100
C308        C  0.53085633  0.35487736  0.83054252     0.10300
S309        S  0.93544272  0.30553240  0.83328969    -0.33100
S310        S  0.56933347  0.37194113  0.82906435    -0.33100
H311        H  0.55760642  0.40430838  0.83684984     0.28300
H312        H  0.91690951  0.33061279  0.85818202     0.28300
H313        H  0.95412966  0.36546538  0.87648908     0.18900
H314        H  0.54946486  0.31474404  0.78522975     0.18900
N315        N  0.50222999  0.94541278  0.09312355    -0.07000
N316        N  0.49263275  0.92530407  0.12716588    -0.59100
N317        N  0.06882210  0.97933762  0.06161925    -0.06600
N318        N  0.09990868  0.97723222  0.07261508    -0.61200
N319        N  0.05191144  0.99561392  0.09646084    -0.06200
N320        N  0.07121686  0.50510310  0.13181373    -0.59100
N321        N  0.01946751  0.92945602  0.05832801    -0.05900
N322        N  0.02217686  0.89822421  0.06814041    -0.61600
C323        C  0.50522628  0.89603140  0.11099194     0.95200
C324        C  0.10102949  0.49373193  0.11606779     0.95000
N325        N  0.05370054  0.99809346  0.40850539    -0.07200
N326        N  0.07385566  0.50883425  0.37553879    -0.59700
N327        N  0.02049248  0.93102819  0.43989669    -0.05300
N328        N  0.02225002  0.89991170  0.42922839    -0.60900
N329        N  0.50398103  0.94789921  0.40519118    -0.07200
N330        N  0.49394846  0.92856316  0.37036662    -0.59900
N331        N  0.06978034  0.98134925  0.44367877    -0.04900
N332        N  0.10111180  0.98047520  0.43549705    -0.61000
Mn333      Mn  0.04519747  0.95471105  0.00078276     1.18400
C334        C  0.10339949  0.49801644  0.39320058     0.97300
C335        C  0.50529666  0.89877413  0.38619245     0.98000
N336        N  0.99492114  0.55177362  0.09655105    -0.07200
N337        N  0.00472117  0.57125362  0.13136180    -0.63500
N338        N  0.42921729  0.51857807  0.05841066    -0.06000
N339        N  0.39792629  0.52038997  0.06770920    -0.64200
N340        N  0.44538219  0.50135443  0.09305608    -0.06700
N341        N  0.42534690  0.99082172  0.12646396    -0.63800
N342        N  0.47874241  0.56854499  0.06151725    -0.05600
N343        N  0.47725405  0.59968451  0.07170794    -0.64500
Mn344      Mn  0.99857458  0.49853506  0.09613895     1.10700
C345        C  0.99385046  0.60113981  0.11505564     0.98500
C346        C  0.39590118  0.00272372  0.10991253     0.98600
N347        N  0.44740875  0.50399835  0.40526400    -0.06700
N348        N  0.42799327  0.99347005  0.37095796    -0.62100
N349        N  0.47994683  0.57010595  0.44362115    -0.06000
N350        N  0.47809752  0.60147761  0.43526219    -0.58800
N351        N  0.99733060  0.55440643  0.40876102    -0.07300
N352        N  0.00796081  0.57490752  0.37610068    -0.61700
N353        N  0.43053160  0.52011013  0.44025657    -0.06300
N354        N  0.39936370  0.52104194  0.43040417    -0.58800
Mn355      Mn  0.50063339  0.00112680  0.40539050     1.20200
Mn356      Mn  0.45403749  0.54487073  0.50091910     1.10100
Cl357      Cl  0.99960808  0.49977938  0.00081933    -0.86800
C358        C  0.39808878  0.00400955  0.38747763     0.95500
C359        C  0.99602519  0.60414354  0.39357863     0.95300
C360        C  0.49859488  0.78000432  0.27711069     0.01400
C361        C  0.49878418  0.77895145  0.22431392     0.01400
C362        C  0.49847617  0.74925204  0.19964175    -0.19100
C363        C  0.49707088  0.72045042  0.22668472     0.01400
C364        C  0.49723509  0.72155001  0.27964297     0.01400
C365        C  0.49828777  0.75120889  0.30424537    -0.19100
H366        H  0.49852599  0.75190617  0.34483771     0.03400
H367        H  0.49888221  0.74862776  0.15905284     0.03400
C368        C  0.27994139  0.99680367  0.27578207     0.01400
C369        C  0.27900873  0.99522211  0.22304290     0.01400
C370        C  0.24926675  0.99498023  0.19841580    -0.19100
C371        C  0.22036515  0.99581764  0.22561604     0.01400
C372        C  0.22135469  0.99636925  0.27853124     0.01400
C373        C  0.25112464  0.99715390  0.30297473    -0.19100
H374        H  0.25184771  0.99844697  0.34351455     0.03400
H375        H  0.24859046  0.99444205  0.15783509     0.03400
C376        C  0.13049517  0.49455148  0.14625802    -0.07000
C377        C  0.14780718  0.52191108  0.14364179    -0.18100
C378        C  0.17698339  0.52311178  0.16953037     0.09000
C379        C  0.18939795  0.99610807  0.19806644    -0.06900
C380        C  0.17189583  0.96882995  0.20089702    -0.18100
C381        C  0.14251699  0.96783467  0.17560808     0.10300
S382        S  0.19698273  0.55981879  0.16493780    -0.33100
S383        S  0.12190325  0.93159505  0.18161327    -0.33100
H384        H  0.09038133  0.94643655  0.17600282     0.28300
H385        H  0.21207508  0.55761504  0.21206656     0.28300
H386        H  0.13857549  0.54242564  0.12116103     0.18900
H387        H  0.18121951  0.94819049  0.22303770     0.18900
C388        C  0.13404317  0.49987442  0.36566727    -0.07000
C389        C  0.15877040  0.97504329  0.37352181    -0.18100
C390        C  0.18694088  0.97285820  0.34483437     0.10200
C391        C  0.19154317  0.99699364  0.30900266    -0.06900
C392        C  0.16746095  0.52251232  0.30240475    -0.18100
C393        C  0.13865599  0.52397926  0.32959136     0.10300
S394        S  0.21515712  0.93773469  0.35395186    -0.33100
S395        S  0.10921627  0.55738607  0.31654186    -0.33100
H396        H  0.10108267  0.56266602  0.36717049     0.28300
H397        H  0.22522263  0.93508102  0.30372529     0.28300
H398        H  0.15550491  0.95608324  0.40044198     0.18900
H399        H  0.17109836  0.54149076  0.27573570     0.18900
C400        C  0.36597724  0.00107893  0.13867540    -0.07000
C401        C  0.35507838  0.97075093  0.14842799    -0.18100
C402        C  0.32634082  0.96792087  0.17480192     0.10200
C403        C  0.30861828  0.99616214  0.19292728    -0.06900
C404        C  0.31950316  0.52647581  0.18301053    -0.18100
C405        C  0.34798264  0.52926415  0.15625608     0.10300
S406        S  0.31404945  0.92760910  0.18332002    -0.33100
S407        S  0.36047873  0.56934260  0.14719616    -0.33100
H408        H  0.39384542  0.56036584  0.15076507     0.28300
H409        H  0.28592047  0.93493485  0.21157161     0.28300
H410        H  0.36881546  0.94914838  0.13469635     0.18900
H411        H  0.30589430  0.54811233  0.19686245     0.18900
C412        C  0.36794303  0.00099828  0.35932788    -0.07000
C413        C  0.34499471  0.52788270  0.35769241    -0.18100
C414        C  0.31666006  0.52743356  0.32961944     0.10200
C415        C  0.31056297  0.99918128  0.30331686    -0.06900
C416        C  0.33325394  0.97209357  0.30542277    -0.18100
C417        C  0.36178648  0.97263824  0.33319932     0.10300
S418        S  0.28942823  0.56380500  0.32865887    -0.33100
S419        S  0.38835567  0.93590606  0.33597350    -0.33100
H420        H  0.39747157  0.93966908  0.38622003     0.28300
H421        H  0.27684044  0.55937451  0.28056043     0.28300
H422        H  0.34955035  0.54980992  0.37741142     0.18900
H423        H  0.32827552  0.95006989  0.28644797     0.18900
C424        C  0.99595791  0.63145643  0.14360786    -0.07000
C425        C  0.47128796  0.65647671  0.13686740    -0.18100
C426        C  0.47044154  0.68509512  0.16451752     0.10200
C427        C  0.99554835  0.68969053  0.19870689    -0.06900
C428        C  0.02073598  0.66510007  0.20443091    -0.18100
C429        C  0.02098741  0.63596506  0.17812358     0.10300
S430        S  0.43625815  0.71441443  0.15477489    -0.33100
S431        S  0.05451392  0.60623204  0.18936148    -0.33100
H432        H  0.05909413  0.59825761  0.13851434     0.28300
H433        H  0.43555363  0.72705611  0.20354193     0.28300
H434        H  0.45175687  0.65336674  0.11091483     0.18900
H435        H  0.04088879  0.66888895  0.22869290     0.18900
C436        C  0.99717863  0.63461005  0.36604034    -0.07000
C437        C  0.46777312  0.65117910  0.35151772    -0.18100
C438        C  0.46699790  0.67983474  0.32396121     0.10200
C439        C  0.99631079  0.69213721  0.31034698    -0.06900
C440        C  0.02568532  0.67613919  0.32626430    -0.18100
C441        C  0.02645292  0.64741085  0.35367850     0.10300
S442        S  0.42792976  0.69913798  0.30687251    -0.33100
S443        S  0.06537413  0.62884760  0.37266570    -0.33100
H444        H  0.05480214  0.61503375  0.41711946     0.28300
H445        H  0.43676229  0.73095376  0.30688160     0.28300
H446        H  0.44520947  0.64151445  0.36127495     0.18900
H447        H  0.04819667  0.68599817  0.31679026     0.18900
C448        C  0.49949569  0.80859939  0.19410664    -0.07000
C449        C  0.02943041  0.81658247  0.17615218    -0.18100
C450        C  0.03209308  0.84526147  0.14979360     0.10200
C451        C  0.50405352  0.86609061  0.13996727    -0.06900
C452        C  0.47412995  0.85818040  0.15809353    -0.18100
C453        C  0.47142650  0.82946622  0.18445737     0.10300
S454        S  0.07212178  0.85482183  0.13261967    -0.33100
S455        S  0.43142637  0.82101603  0.20377033    -0.33100
H456        H  0.43777100  0.78764809  0.21130584     0.28300
H457        H  0.06641755  0.88808946  0.14254960     0.28300
H458        H  0.05102470  0.80078574  0.18411378     0.18900
H459        H  0.45257981  0.87415726  0.15064975     0.18900
C460        C  0.50365875  0.86926236  0.35648535    -0.07000
C461        C  0.97469719  0.85441966  0.35594682    -0.18100
C462        C  0.97253666  0.82504315  0.33081212     0.10200
C463        C  0.49965838  0.81081284  0.30463415    -0.06900
C464        C  0.52854550  0.82583174  0.30495949    -0.18100
C465        C  0.53088533  0.85485101  0.33060259     0.10300
S466        S  0.93539606  0.80558808  0.33304952    -0.33100
S467        S  0.56939025  0.87187047  0.32917001    -0.33100
H468        H  0.55778404  0.90421197  0.33748645     0.28300
H469        H  0.91675213  0.83084002  0.35736881     0.28300
H470        H  0.95406841  0.86548503  0.37636684     0.18900
H471        H  0.54948992  0.81471632  0.28528877     0.18900
N472        N  0.50223408  0.94540422  0.59310075    -0.07000
N473        N  0.49264058  0.92529410  0.62714402    -0.59100
N474        N  0.06881944  0.97933469  0.56160582    -0.06600
N475        N  0.09990703  0.97723074  0.57259527    -0.61200
N476        N  0.05190972  0.99560364  0.59645599    -0.06200
N477        N  0.07123511  0.50506400  0.63178648    -0.59100
N478        N  0.01946879  0.92944743  0.55832043    -0.05900
N479        N  0.02218424  0.89821437  0.56812701    -0.61600
C480        C  0.50522961  0.89602117  0.61096303     0.95200
C481        C  0.10104247  0.49368659  0.61602457     0.95000
N482        N  0.05371474  0.99808774  0.90851944    -0.07200
N483        N  0.07386410  0.50883121  0.87554489    -0.59700
N484        N  0.02051621  0.93102278  0.93988243    -0.05300
N485        N  0.02228677  0.89990934  0.92918639    -0.60900
N486        N  0.50400536  0.94789549  0.90520183    -0.07200
N487        N  0.49398345  0.92856853  0.87035698    -0.59900
N488        N  0.06979408  0.98134524  0.94369516    -0.04900
N489        N  0.10112601  0.98046848  0.93551438    -0.61000
Mn490      Mn  0.04518813  0.95471254  0.50077447     1.18400
C491        C  0.10341074  0.49802550  0.89320816     0.97300
C492        C  0.50536426  0.89878064  0.88613611     0.98000
N493        N  0.99493941  0.55176030  0.59656754    -0.07200
N494        N  0.00473388  0.57123086  0.63139643    -0.63500
N495        N  0.42922108  0.51855836  0.55840137    -0.06000
N496        N  0.39792936  0.52036394  0.56769180    -0.64200
N497        N  0.44538610  0.50133536  0.59304728    -0.06700
N498        N  0.42535876  0.99082933  0.62645258    -0.63800
N499        N  0.47873402  0.56853634  0.56150903    -0.05600
N500        N  0.47723857  0.59967653  0.57169543    -0.64500
Mn501      Mn  0.99857774  0.49852376  0.59613730     1.10700
C502        C  0.99386359  0.60112089  0.61510672     0.98500
C503        C  0.39591454  0.00274085  0.60990619     0.98600
N504        N  0.44740855  0.50402588  0.90525470    -0.06700
N505        N  0.42799769  0.99344377  0.87096315    -0.62100
N506        N  0.47995504  0.57011494  0.94363151    -0.06000
N507        N  0.47809961  0.60148536  0.93526276    -0.58800
N508        N  0.99732514  0.55438435  0.90875383    -0.07300
N509        N  0.00795852  0.57488334  0.87609364    -0.61700
N510        N  0.43052904  0.52013363  0.94024923    -0.06300
N511        N  0.39936194  0.52107066  0.93038483    -0.58800
Mn512      Mn  0.50063621  0.00111788  0.90541417     1.20200
Mn513      Mn  0.45403834  0.54488554  0.00092473     1.10100
Cl514      Cl  0.99960081  0.49978557  0.50081539    -0.86800
C515        C  0.39808977  0.00398218  0.88747173     0.95500
C516        C  0.99601623  0.60411885  0.89356323     0.95300
C517        C  0.49858178  0.77999671  0.77710987     0.01400
C518        C  0.49877781  0.77895011  0.72431044     0.01400
C519        C  0.49845833  0.74925558  0.69962650    -0.19100
C520        C  0.49704272  0.72045209  0.72665739     0.01400
C521        C  0.49719795  0.72154416  0.77961496     0.01400
C522        C  0.49825751  0.75119756  0.80423081    -0.19100
H523        H  0.49849515  0.75188660  0.84482365     0.03400
H524        H  0.49886673  0.74863638  0.65903731     0.03400
C525        C  0.27994784  0.99679340  0.77575121     0.01400
C526        C  0.27900959  0.99522069  0.72301137     0.01400
C527        C  0.24926224  0.99499605  0.69839303    -0.19100
C528        C  0.22036382  0.99582523  0.72560121     0.01400
C529        C  0.22135965  0.99636410  0.77851663     0.01400
C530        C  0.25113347  0.99714227  0.80295160    -0.19100
H531        H  0.25186163  0.99842966  0.84349158     0.03400
H532        H  0.24858043  0.99446825  0.65781209     0.03400
C533        C  0.13051596  0.49450542  0.64619849    -0.07000
C534        C  0.14782219  0.52186931  0.64358591    -0.18100
C535        C  0.17698966  0.52308093  0.66949508     0.09000
C536        C  0.18939434  0.99611342  0.69805766    -0.06900
C537        C  0.17189249  0.96883514  0.70089559    -0.18100
C538        C  0.14251410  0.96783671  0.67560640     0.10300
S539        S  0.19697032  0.55980087  0.66493485    -0.33100
S540        S  0.12189150  0.93160464  0.68163826    -0.33100
H541        H  0.09037197  0.94646248  0.67607925     0.28300
H542        H  0.21205013  0.55759700  0.71207320     0.28300
H543        H  0.13858848  0.54238205  0.62110296     0.18900
H544        H  0.18121471  0.94819913  0.72304505     0.18900
C545        C  0.13404792  0.49987625  0.86565876    -0.07000
C546        C  0.15878463  0.97503162  0.87352379    -0.18100
C547        C  0.18695234  0.97284842  0.84482813     0.10200
C548        C  0.19155087  0.99698587  0.80899716    -0.06900
C549        C  0.16745304  0.52250609  0.80237246    -0.18100
C550        C  0.13865210  0.52397498  0.82956948     0.10300
S551        S  0.21516996  0.93772471  0.85393305    -0.33100
S552        S  0.10920433  0.55737467  0.81651365    -0.33100
H553        H  0.10107500  0.56266448  0.86714170     0.28300
H554        H  0.22522387  0.93507180  0.80370084     0.28300
H555        H  0.15552087  0.95606960  0.90044142     0.18900
H556        H  0.17108539  0.54148102  0.77569533     0.18900
C557        C  0.36598719  0.00109258  0.63866203    -0.07000
C558        C  0.35509293  0.97076250  0.64841270    -0.18100
C559        C  0.32634687  0.96792728  0.67476220     0.10200
C560        C  0.30861569  0.99616562  0.69288382    -0.06900
C561        C  0.31953538  0.52645510  0.68305878    -0.18100
C562        C  0.34800887  0.52923940  0.65628724     0.10300
S563        S  0.31407721  0.92760864  0.68329712    -0.33100
S564        S  0.36051969  0.56931460  0.64725195    -0.33100
H565        H  0.39388644  0.56032356  0.65075242     0.28300
H566        H  0.28568474  0.93496751  0.71090112     0.28300
H567        H  0.36883847  0.94916181  0.63469197     0.18900
H568        H  0.30594430  0.54809174  0.69694608     0.18900
C569        C  0.36794812  0.00097826  0.85930477    -0.07000
C570        C  0.34498941  0.52790388  0.85767159    -0.18100
C571        C  0.31665110  0.52744582  0.82960961     0.10200
C572        C  0.31057131  0.99917072  0.80328057    -0.06900
C573        C  0.33326256  0.97208338  0.80537838    -0.18100
C574        C  0.36179436  0.97262417  0.83315810     0.10300
S575        S  0.28941225  0.56381255  0.82864815    -0.33100
S576        S  0.38836774  0.93589474  0.83590984    -0.33100
H577        H  0.39746608  0.93963776  0.88616885     0.28300
H578        H  0.27681554  0.55937511  0.78055751     0.28300
H579        H  0.34954075  0.54983287  0.87738899     0.18900
H580        H  0.32828430  0.95006263  0.78639462     0.18900
C581        C  0.99596267  0.63143166  0.64367537    -0.07000
C582        C  0.47125467  0.65646932  0.63686119    -0.18100
C583        C  0.47040931  0.68509104  0.66450393     0.10200
C584        C  0.99554993  0.68967453  0.69875037    -0.06900
C585        C  0.02073181  0.66508036  0.70449902    -0.18100
C586        C  0.02098224  0.63593898  0.67820930     0.10300
S587        S  0.43621770  0.71440329  0.65478228    -0.33100
S588        S  0.05449286  0.60619640  0.68949810    -0.33100
H589        H  0.05910051  0.59821496  0.63865884     0.28300
H590        H  0.43552174  0.72704185  0.70355175     0.28300
H591        H  0.45171591  0.65335002  0.61092697     0.18900
H592        H  0.04088107  0.66887056  0.72876683     0.18900
C593        C  0.99716760  0.63458351  0.86602446    -0.07000
C594        C  0.46775745  0.65118539  0.85154587    -0.18100
C595        C  0.46697212  0.67983694  0.82397786     0.10200
C596        C  0.99629413  0.69213020  0.81038330    -0.06900
C597        C  0.02566986  0.67613353  0.82629969    -0.18100
C598        C  0.02643977  0.64739689  0.85369252     0.10300
S599        S  0.42789612  0.69915064  0.80695293    -0.33100
S600        S  0.06535815  0.62884197  0.87270671    -0.33100
H601        H  0.05477558  0.61507276  0.91719023     0.28300
H602        H  0.43673967  0.73096191  0.80690444     0.28300
H603        H  0.44519688  0.64153008  0.86134833     0.18900
H604        H  0.04817989  0.68600062  0.81684271     0.18900
C605        C  0.49949701  0.80859854  0.69410569    -0.07000
C606        C  0.02943289  0.81654566  0.67610942    -0.18100
C607        C  0.03209810  0.84522172  0.64974036     0.10200
C608        C  0.50405681  0.86607860  0.63993697    -0.06900
C609        C  0.47414108  0.85819774  0.65813836    -0.18100
C610        C  0.47143826  0.82949227  0.68452455     0.10300
S611        S  0.07212554  0.85475829  0.63251532    -0.33100
S612        S  0.43145574  0.82108525  0.70398290    -0.33100
H613        H  0.43774711  0.78767734  0.71115984     0.28300
H614        H  0.06644923  0.88802553  0.64246832     0.28300
H615        H  0.05102313  0.80073653  0.68404282     0.18900
H616        H  0.45259644  0.87419335  0.65074508     0.18900
C617        C  0.50368079  0.86926940  0.85643668    -0.07000
C618        C  0.97470970  0.85441557  0.85598062    -0.18100
C619        C  0.97254463  0.82502994  0.83087255     0.10200
C620        C  0.49966370  0.81080006  0.80464735    -0.06900
C621        C  0.52854048  0.82584078  0.80488226    -0.18100
C622        C  0.53087326  0.85487961  0.83047112     0.10300
S623        S  0.93541465  0.80555866  0.83318853    -0.33100
S624        S  0.56930214  0.87201589  0.82889078    -0.33100
H625        H  0.55734559  0.90442703  0.83559735     0.28300
H626        H  0.91684918  0.83068420  0.85792672     0.28300
H627        H  0.95409309  0.86548088  0.87642826     0.18900
H628        H  0.54947013  0.81474404  0.78515459     0.18900
N629        N  0.00223862  0.44541253  0.09311484    -0.07000
N630        N  0.99263902  0.42530398  0.12715520    -0.59100
N631        N  0.56881516  0.47932800  0.06160592    -0.06600
N632        N  0.59990367  0.47722245  0.07258933    -0.61200
N633        N  0.55190972  0.49560549  0.09645172    -0.06200
N634        N  0.57121387  0.00510787  0.13180911    -0.59100
N635        N  0.51945118  0.42945407  0.05832593    -0.05900
N636        N  0.52216035  0.39822200  0.06813749    -0.61600
C637        C  0.00523298  0.39603148  0.11098196     0.95200
C638        C  0.60102595  0.99373855  0.11605760     0.95000
N639        N  0.55370363  0.49809675  0.40849920    -0.07200
N640        N  0.57385470  0.00883834  0.37552259    -0.59700
N641        N  0.52051365  0.43102726  0.43990061    -0.05300
N642        N  0.52227808  0.39991003  0.42923624    -0.60900
N643        N  0.00397710  0.44790278  0.40518988    -0.07200
N644        N  0.99394809  0.42857239  0.37035433    -0.59900
N645        N  0.56978810  0.48135951  0.44367517    -0.04900
N646        N  0.60111887  0.48049013  0.43548878    -0.61000
Mn647      Mn  0.54517748  0.45470843  0.00077906     1.18400
C648        C  0.60339990  0.99802510  0.39318367     0.97300
C649        C  0.00529984  0.39878140  0.38616545     0.98000
N650        N  0.49491417  0.05177394  0.09656190    -0.07200
N651        N  0.50471002  0.07125193  0.13137871    -0.63500
N652        N  0.92922121  0.01856636  0.05840108    -0.06000
N653        N  0.89792989  0.02037400  0.06769424    -0.64200
N654        N  0.94538639  0.00134768  0.09305116    -0.06700
N655        N  0.92535180  0.49081722  0.12645256    -0.63800
N656        N  0.97873896  0.06854247  0.06150260    -0.05600
N657        N  0.97725079  0.09968364  0.07168270    -0.64500
Mn658      Mn  0.49856800  0.99853593  0.09614607     1.10700
C659        C  0.49383725  0.10113858  0.11507757     0.98500
C660        C  0.89590615  0.50271583  0.10989544     0.98600
N661        N  0.94740586  0.00401527  0.40526196    -0.06700
N662        N  0.92799209  0.49348248  0.37095185    -0.62100
N663        N  0.97994982  0.07011351  0.44363035    -0.06000
N664        N  0.97809676  0.10148499  0.43526660    -0.58800
N665        N  0.49733296  0.05440424  0.40875207    -0.07300
N666        N  0.50796705  0.07490656  0.37609722    -0.61700
N667        N  0.93052883  0.02012504  0.44025675    -0.06300
N668        N  0.89936119  0.02106265  0.43039876    -0.58800
Mn669      Mn  0.00063098  0.50112952  0.40539929     1.20200
Mn670      Mn  0.95403783  0.04487741  0.50092606     1.10100
Cl671      Cl  0.49959964  0.99978376  0.00082598    -0.86800
C672        C  0.89808688  0.50402381  0.38746630     0.95500
C673        C  0.49603644  0.10414231  0.39358313     0.95300
C674        C  0.99859599  0.28000504  0.27709225     0.01400
C675        C  0.99878329  0.27895196  0.22429533     0.01400
C676        C  0.99847057  0.24925369  0.19962198    -0.19100
C677        C  0.99706400  0.22045229  0.22666355     0.01400
C678        C  0.99723023  0.22155039  0.27962185     0.01400
C679        C  0.99828652  0.25120895  0.30422575    -0.19100
H680        H  0.99852602  0.25190540  0.34481789     0.03400
H681        H  0.99887461  0.24863008  0.15903285     0.03400
C682        C  0.77993874  0.49682822  0.27576126     0.01400
C683        C  0.77900822  0.49523808  0.22302227     0.01400
C684        C  0.74926695  0.49499426  0.19839299    -0.19100
C685        C  0.72036380  0.49583787  0.22559079     0.01400
C686        C  0.72135093  0.49639649  0.27850565     0.01400
C687        C  0.75112022  0.49718311  0.30295138    -0.19100
H688        H  0.75184153  0.49847889  0.34349101     0.03400
H689        H  0.74859237  0.49444952  0.15781243     0.03400
C690        C  0.63049445  0.99456319  0.14624097    -0.07000
C691        C  0.64779840  0.02192878  0.14363183    -0.18100
C692        C  0.67697355  0.02313518  0.16952247     0.09000
C693        C  0.68939803  0.49612124  0.19803893    -0.06900
C694        C  0.67190537  0.46883636  0.20086227    -0.18100
C695        C  0.64252835  0.46783368  0.17557080     0.10300
S696        S  0.69695898  0.05985164  0.16494790    -0.33100
S697        S  0.62191919  0.43159200  0.18158340    -0.33100
H698        H  0.59039545  0.44643685  0.17601193     0.28300
H699        H  0.71206447  0.05763876  0.21206603     0.28300
H700        H  0.63856035  0.04244409  0.12115799     0.18900
H701        H  0.68123346  0.44819865  0.22300309     0.18900
C702        C  0.63404236  0.99988889  0.36564974    -0.07000
C703        C  0.65877095  0.47505873  0.37349447    -0.18100
C704        C  0.68693899  0.47287726  0.34480143     0.10200
C705        C  0.69153853  0.49701647  0.30897505    -0.06900
C706        C  0.66745747  0.02253769  0.30239374    -0.18100
C707        C  0.63865269  0.02399885  0.32958069     0.10300
S708        S  0.71515497  0.43775159  0.35389978    -0.33100
S709        S  0.60920921  0.05740378  0.31653863    -0.33100
H710        H  0.60107280  0.06267574  0.36716789     0.28300
H711        H  0.72520655  0.43510107  0.30366617     0.28300
H712        H  0.65550847  0.45609640  0.40041205     0.18900
H713        H  0.67109346  0.04151968  0.27573027     0.18900
C714        C  0.86598150  0.50107557  0.13865779    -0.07000
C715        C  0.85506951  0.47075096  0.14839308    -0.18100
C716        C  0.82633153  0.46792715  0.17476980     0.10200
C717        C  0.80862030  0.49617097  0.19290975    -0.06900
C718        C  0.81951777  0.02648240  0.18300925    -0.18100
C719        C  0.84799872  0.02926180  0.15625527     0.10300
S720        S  0.81402076  0.42762089  0.18326420    -0.33100
S721        S  0.86051125  0.06933483  0.14720594    -0.33100
H722        H  0.89387592  0.06034475  0.15076394     0.28300
H723        H  0.78596846  0.43494152  0.21169837     0.28300
H724        H  0.86879730  0.44914672  0.13464838     0.18900
H725        H  0.80591821  0.04812210  0.19686891     0.18900
C726        C  0.86794267  0.50101689  0.35930884    -0.07000
C727        C  0.84498884  0.02790667  0.35769138    -0.18100
C728        C  0.81665399  0.02745774  0.32961858     0.10200
C729        C  0.81056098  0.49920436  0.30329763    -0.06900
C730        C  0.83325716  0.47212002  0.30538566    -0.18100
C731        C  0.86179042  0.47266258  0.33316118     0.10300
S732        S  0.78941675  0.06382527  0.32867330    -0.33100
S733        S  0.88836665  0.43593427  0.33590772    -0.33100
H734        H  0.89747626  0.43967993  0.38616099     0.28300
H735        H  0.77683965  0.05940511  0.28056471     0.28300
H736        H  0.84954082  0.04983114  0.37742074     0.18900
H737        H  0.82828260  0.45009997  0.28639693     0.18900
C738        C  0.49594402  0.13145410  0.14363224    -0.07000
C739        C  0.97128022  0.15647958  0.13684517    -0.18100
C740        C  0.97043137  0.18509597  0.16450154     0.10200
C741        C  0.49554077  0.18969278  0.19871773    -0.06900
C742        C  0.52072463  0.16509917  0.20444935    -0.18100
C743        C  0.52097211  0.13596146  0.17815087     0.10300
S744        S  0.93623964  0.21440854  0.15477959    -0.33100
S745        S  0.55449166  0.10622325  0.18940511    -0.33100
H746        H  0.55908173  0.09824912  0.13855971     0.28300
H747        H  0.93554522  0.22705139  0.20354554     0.28300
H748        H  0.95174562  0.15336623  0.11090057     0.18900
H749        H  0.54087754  0.16888716  0.22871148     0.18900
C750        C  0.49718689  0.13460942  0.36604799    -0.07000
C751        C  0.96776863  0.15118767  0.35152100    -0.18100
C752        C  0.96699362  0.17983975  0.32395461     0.10200
C753        C  0.49631085  0.19213600  0.31035610    -0.06900
C754        C  0.52568729  0.17614339  0.32627572    -0.18100
C755        C  0.52645904  0.14741493  0.35368896     0.10300
S756        S  0.92792579  0.19914589  0.30687208    -0.33100
S757        S  0.56538220  0.12885849  0.37267902    -0.33100
H758        H  0.55481073  0.11504095  0.41713011     0.28300
H759        H  0.93676048  0.23096087  0.30689633     0.28300
H760        H  0.94520481  0.14152762  0.36129021     0.18900
H761        H  0.54819681  0.18600637  0.31680318     0.18900
C762        C  0.99949664  0.30859879  0.19408795    -0.07000
C763        C  0.52942307  0.31658300  0.17616156    -0.18100
C764        C  0.53208387  0.34525986  0.14979547     0.10200
C765        C  0.00405768  0.36609083  0.13995538    -0.06900
C766        C  0.97413329  0.35818201  0.15808069    -0.18100
C767        C  0.97142844  0.32946696  0.18444113     0.10300
S768        S  0.57211146  0.35481812  0.13261109    -0.33100
S769        S  0.93142880  0.32101599  0.20375517    -0.33100
H770        H  0.93776948  0.28764297  0.21124212     0.28300
H771        H  0.56640854  0.38808745  0.14252854     0.28300
H772        H  0.55101756  0.30078517  0.18411769     0.18900
H773        H  0.95258387  0.37416034  0.15063856     0.18900
C774        C  0.00365550  0.36927236  0.35645050    -0.07000
C775        C  0.47471689  0.35440895  0.35599030    -0.18100
C776        C  0.47255063  0.32503324  0.33085718     0.10200
C777        C  0.99965976  0.31081501  0.30461512    -0.06900
C778        C  0.02854363  0.32584055  0.30492679    -0.18100
C779        C  0.03087838  0.35486538  0.33055754     0.10300
S780        S  0.43541072  0.30557746  0.33311605    -0.33100
S781        S  0.06936897  0.37190766  0.32910424    -0.33100
H782        H  0.05769911  0.40426305  0.33714281     0.28300
H783        H  0.41678255  0.33081059  0.35750492     0.28300
H784        H  0.45409278  0.36547501  0.37642034     0.18900
H785        H  0.04948756  0.31472863  0.28525115     0.18900
N786        N  0.00222241  0.44540092  0.59310817    -0.07000
N787        N  0.99262575  0.42529163  0.62715051    -0.59100
N788        N  0.56882621  0.47934941  0.56160538    -0.06600
N789        N  0.59991253  0.47724330  0.57260260    -0.61200
N790        N  0.55191341  0.49561567  0.59645513    -0.06200
N791        N  0.57124242  0.00506116  0.63177971    -0.59100
N792        N  0.51948770  0.42945434  0.55832200    -0.05900
N793        N  0.52220924  0.39822161  0.56812940    -0.61600
C794        C  0.00521055  0.39601732  0.61096885     0.95200
C795        C  0.60104916  0.99368149  0.61601864     0.95000
N796        N  0.55370552  0.49808665  0.90851439    -0.07200
N797        N  0.57386040  0.00883174  0.87555341    -0.59700
N798        N  0.52047472  0.43102942  0.93990118    -0.05300
N799        N  0.52222088  0.39991321  0.92923348    -0.60900
N800        N  0.00402077  0.44789131  0.90519276    -0.07200
N801        N  0.99400270  0.42856617  0.87034282    -0.59900
N802        N  0.56977964  0.48133663  0.94368702    -0.04900
N803        N  0.60111250  0.48045804  0.93551390    -0.61000
Mn804      Mn  0.54520219  0.45472091  0.50077507     1.18400
C805        C  0.60340584  0.99802257  0.89321898     0.97300
C806        C  0.00539445  0.39877956  0.88611005     0.98000
N807        N  0.49494589  0.05176402  0.59655876    -0.07200
N808        N  0.50474433  0.07123551  0.63138349    -0.63500
N809        N  0.92921789  0.01856596  0.55840745    -0.06000
N810        N  0.89792614  0.02037494  0.56769955    -0.64200
N811        N  0.94538150  0.00133927  0.59305096    -0.06700
N812        N  0.92535180  0.49083219  0.62646164    -0.63800
N813        N  0.97873859  0.06853402  0.56151936    -0.05600
N814        N  0.97724375  0.09967291  0.57171261    -0.64500
Mn815      Mn  0.49858551  0.99852670  0.59612869     1.10700
C816        C  0.49387436  0.10112562  0.61509318     0.98500
C817        C  0.89590823  0.50274688  0.60991776     0.98600
N818        N  0.94741606  0.00400121  0.90525569    -0.06700
N819        N  0.92800381  0.49342665  0.87096505    -0.62100
N820        N  0.97995367  0.07010127  0.94362102    -0.06000
N821        N  0.97809828  0.10147121  0.93525108    -0.58800
N822        N  0.49731931  0.05439258  0.90876071    -0.07300
N823        N  0.50795106  0.07489191  0.87609911    -0.61700
N824        N  0.93053466  0.02011188  0.94024537    -0.06300
N825        N  0.89936778  0.02104608  0.93038018    -0.58800
Mn826      Mn  0.00064401  0.50111139  0.90540893     1.20200
Mn827      Mn  0.95403979  0.04487292  0.00091492     1.10100
Cl828      Cl  0.49960689  0.99978707  0.50080741    -0.86800
C829        C  0.89809588  0.50396592  0.88747358     0.95500
C830        C  0.49600720  0.10412773  0.89356632     0.95300
C831        C  0.99857558  0.27998939  0.77712452     0.01400
C832        C  0.99876669  0.27894392  0.72432478     0.01400
C833        C  0.99844930  0.24924878  0.69964209    -0.19100
C834        C  0.99703691  0.22044494  0.72667420     0.01400
C835        C  0.99719225  0.22153745  0.77963169     0.01400
C836        C  0.99825255  0.25119061  0.80424649    -0.19100
H837        H  0.99849336  0.25187967  0.84483918     0.03400
H838        H  0.99885746  0.24862924  0.65905292     0.03400
C839        C  0.77995225  0.49676449  0.77576141     0.01400
C840        C  0.77900866  0.49519676  0.72302171     0.01400
C841        C  0.74925876  0.49497881  0.69840994    -0.19100
C842        C  0.72036294  0.49580582  0.72562329     0.01400
C843        C  0.72136321  0.49633980  0.77853927     0.01400
C844        C  0.75114005  0.49711356  0.80296800    -0.19100
H845        H  0.75187211  0.49840099  0.84350783     0.03400
H846        H  0.74857325  0.49445654  0.65782885     0.03400
C847        C  0.63052067  0.99449290  0.64619699    -0.07000
C848        C  0.64784123  0.02184589  0.64356548    -0.18100
C849        C  0.67700549  0.02305329  0.66948312     0.09000
C850        C  0.68939192  0.49610152  0.69808185    -0.06900
C851        C  0.67187647  0.46883317  0.70093476    -0.18100
C852        C  0.64249847  0.46784154  0.67564198     0.10300
S853        S  0.69700418  0.05976087  0.66489991    -0.33100
S854        S  0.62186264  0.43161819  0.68168409    -0.33100
H855        H  0.59034783  0.44647835  0.67607889     0.28300
H856        H  0.71205452  0.05757499  0.71206185     0.28300
H857        H  0.63862044  0.04235409  0.62106263     0.18900
H858        H  0.68118891  0.44819873  0.72309584     0.18900
C859        C  0.63404651  0.99987016  0.86567451    -0.07000
C860        C  0.65878372  0.47502964  0.87355833    -0.18100
C861        C  0.68695426  0.47284058  0.84486867     0.10200
C862        C  0.69155539  0.49697009  0.80902512    -0.06900
C863        C  0.66745590  0.02248425  0.80237752    -0.18100
C864        C  0.63865310  0.02395984  0.82957128     0.10300
S865        S  0.71517058  0.43771864  0.85399895    -0.33100
S866        S  0.60920634  0.05735642  0.81649278    -0.33100
H867        H  0.60107625  0.06265990  0.86711750     0.28300
H868        H  0.72523632  0.43505690  0.80377329     0.28300
H869        H  0.65551812  0.45607276  0.90048404     0.18900
H870        H  0.67108886  0.04145232  0.77568866     0.18900
C871        C  0.86597985  0.50109192  0.63866840    -0.07000
C872        C  0.85510436  0.47075707  0.64844490    -0.18100
C873        C  0.82635756  0.46791382  0.67478764     0.10200
C874        C  0.80860926  0.49614931  0.69288427    -0.06900
C875        C  0.81950881  0.02643941  0.68302763    -0.18100
C876        C  0.84798210  0.02923448  0.65626051     0.10300
S877        S  0.81411958  0.42758710  0.68336957    -0.33100
S878        S  0.86047129  0.06931638  0.64720940    -0.33100
H879        H  0.89383972  0.06034363  0.65075142     0.28300
H880        H  0.78557327  0.43496202  0.71058734     0.28300
H881        H  0.86886464  0.44915847  0.63474746     0.18900
H882        H  0.80590354  0.04807265  0.69689831     0.18900
C883        C  0.86795365  0.50095968  0.85930875    -0.07000
C884        C  0.84500623  0.02788205  0.85763892    -0.18100
C885        C  0.81666738  0.02742209  0.82957755     0.10200
C886        C  0.81057743  0.49914565  0.80328420    -0.06900
C887        C  0.83326071  0.47205298  0.80541100    -0.18100
C888        C  0.86179140  0.47259658  0.83319350     0.10300
S889        S  0.78943801  0.06379555  0.82858762    -0.33100
S890        S  0.88835038  0.43585931  0.83599707    -0.33100
H891        H  0.89744751  0.43962769  0.88625107     0.28300
H892        H  0.77681622  0.05933510  0.78052037     0.28300
H893        H  0.84956442  0.04981659  0.87733556     0.18900
H894        H  0.82827541  0.45002581  0.78645171     0.18900
C895        C  0.49597715  0.13143732  0.64366075    -0.07000
C896        C  0.97125901  0.15646151  0.63687306    -0.18100
C897        C  0.97041185  0.18508406  0.66451256     0.10200
C898        C  0.49556675  0.18967723  0.69874658    -0.06900
C899        C  0.52074958  0.16508319  0.70448749    -0.18100
C900        C  0.52100059  0.13594461  0.67818846     0.10300
S901        S  0.93622525  0.21439953  0.65477343    -0.33100
S902        S  0.55451872  0.10620658  0.68945310    -0.33100
H903        H  0.55911206  0.09822587  0.63861088     0.28300
H904        H  0.93551540  0.22703084  0.70354814     0.28300
H905        H  0.95172509  0.15334438  0.61092884     0.18900
H906        H  0.54089983  0.16887224  0.72875431     0.18900
C907        C  0.49716410  0.13459407  0.86602942    -0.07000
C908        C  0.96775670  0.15116383  0.85152862    -0.18100
C909        C  0.96696978  0.17982149  0.82397703     0.10200
C910        C  0.49630246  0.19213968  0.81038188    -0.06900
C911        C  0.52567534  0.17613683  0.82629853    -0.18100
C912        C  0.52643943  0.14740033  0.85369244     0.10300
S913        S  0.92789396  0.19913748  0.80695940    -0.33100
S914        S  0.56535578  0.12883402  0.87269549    -0.33100
H915        H  0.55477394  0.11505761  0.91717359     0.28300
H916        H  0.93673403  0.23095025  0.80698172     0.28300
H917        H  0.94519710  0.14150213  0.86131804     0.18900
H918        H  0.54818790  0.18599803  0.81683912     0.18900
C919        C  0.99948266  0.30859357  0.69411879    -0.07000
C920        C  0.52945708  0.31655779  0.67612595    -0.18100
C921        C  0.53212392  0.34523335  0.64975674     0.10200
C922        C  0.00403823  0.36607492  0.63994665    -0.06900
C923        C  0.97412512  0.35819786  0.65816569    -0.18100
C924        C  0.97142466  0.32949250  0.68455528     0.10300
S925        S  0.57215302  0.35477437  0.63254805    -0.33100
S926        S  0.93144657  0.32109160  0.70404424    -0.33100
H927        H  0.93773166  0.28767817  0.71117007     0.28300
H928        H  0.56646782  0.38804411  0.64247322     0.28300
H929        H  0.55104845  0.30075553  0.68408165     0.18900
H930        H  0.95258073  0.37419643  0.65078462     0.18900
C931        C  0.00369570  0.36926762  0.85641878    -0.07000
C932        C  0.47467103  0.35442750  0.85593740    -0.18100
C933        C  0.47251563  0.32504962  0.83080323     0.10200
C934        C  0.99966664  0.31079110  0.80466055    -0.06900
C935        C  0.02854366  0.32583209  0.80486905    -0.18100
C936        C  0.03087822  0.35487758  0.83043617     0.10300
S937        S  0.43537654  0.30559130  0.83303295    -0.33100
S938        S  0.06928901  0.37204018  0.82880936    -0.33100
H939        H  0.05724486  0.40446505  0.83508731     0.28300
H940        H  0.41674666  0.33080957  0.85745367     0.28300
H941        H  0.45404018  0.36549145  0.87635425     0.18900
H942        H  0.04946813  0.31473547  0.78512906     0.18900
N943        N  0.00222951  0.94541330  0.09311351    -0.07000
N944        N  0.99262721  0.92530694  0.12715492    -0.59100
N945        N  0.56881465  0.97935193  0.06163003    -0.06600
N946        N  0.59990120  0.97725525  0.07262427    -0.61200
N947        N  0.55190077  0.99562527  0.09647119    -0.06200
N948        N  0.57123092  0.50508277  0.13178228    -0.59100
N949        N  0.51947189  0.92945839  0.05833927    -0.05900
N950        N  0.52218919  0.89822668  0.06815372    -0.61600
C951        C  0.00521325  0.89603238  0.11097871     0.95200
C952        C  0.60103863  0.49370519  0.11602190     0.95000
N953        N  0.55370298  0.99808964  0.40848683    -0.07200
N954        N  0.57385046  0.50884143  0.37552439    -0.59700
N955        N  0.52047834  0.93103059  0.43990214    -0.05300
N956        N  0.52222197  0.89991209  0.42925521    -0.60900
N957        N  0.00398734  0.94789846  0.40519522    -0.07200
N958        N  0.99396015  0.92856624  0.37036101    -0.59900
N959        N  0.56978180  0.98134233  0.44365764    -0.04900
N960        N  0.60111364  0.98046992  0.43547855    -0.61000
Mn961      Mn  0.54519625  0.95471896  0.00079360     1.18400
C962        C  0.60339830  0.49803694  0.39318398     0.97300
C963        C  0.00532209  0.89877727  0.38616659     0.98000
N964        N  0.49493643  0.55176998  0.09656180    -0.07200
N965        N  0.50473812  0.57124212  0.13138246    -0.63500
N966        N  0.92921716  0.51855505  0.05839713    -0.06000
N967        N  0.89792524  0.52035632  0.06768416    -0.64200
N968        N  0.94538287  0.50133792  0.09304811    -0.06700
N969        N  0.92535564  0.99083148  0.12645991    -0.63800
N970        N  0.97872636  0.56854090  0.06149931    -0.05600
N971        N  0.97723456  0.59968286  0.07167548    -0.64500
Mn972      Mn  0.49857427  0.49853350  0.09613855     1.10700
C973        C  0.49387026  0.60113201  0.11508946     0.98500
C974        C  0.89591084  0.00273635  0.10990855     0.98600
N975        N  0.94740669  0.50402764  0.40525550    -0.06700
N976        N  0.92799099  0.99346583  0.37096230    -0.62100
N977        N  0.97995620  0.57011739  0.44363318    -0.06000
N978        N  0.97810188  0.60148867  0.43526848    -0.58800
N979        N  0.49732129  0.55439540  0.40874908    -0.07300
N980        N  0.50795696  0.57489698  0.37609414    -0.61700
N981        N  0.93053009  0.52013547  0.44025290    -0.06300
N982        N  0.89936252  0.52107565  0.43039220    -0.58800
Mn983      Mn  0.00063083  0.00112518  0.40540268     1.20200
Mn984      Mn  0.95404223  0.54488351  0.50092752     1.10100
Cl985      Cl  0.49959870  0.49978835  0.00081884    -0.86800
C986        C  0.89808562  0.00400714  0.38747689     0.95500
C987        C  0.49602391  0.60413300  0.39357573     0.95300
C988        C  0.99858805  0.78000297  0.27709831     0.01400
C989        C  0.99876881  0.77895584  0.22430075     0.01400
C990        C  0.99845139  0.74926052  0.19961950    -0.19100
C991        C  0.99704701  0.72045632  0.22665395     0.01400
C992        C  0.99721705  0.72154920  0.27961225     0.01400
C993        C  0.99827801  0.75120427  0.30422373    -0.19100
H994        H  0.99852240  0.75189568  0.34481615     0.03400
H995        H  0.99885166  0.74864135  0.15903021     0.03400
C996        C  0.77994596  0.99681721  0.27575232     0.01400
C997        C  0.77900604  0.99524344  0.22301244     0.01400
C998        C  0.74925784  0.99502603  0.19839423    -0.19100
C999        C  0.72036030  0.99585637  0.22560293     0.01400
C1000       C  0.72135754  0.99639278  0.27851802     0.01400
C1001       C  0.75113165  0.99716787  0.30295295    -0.19100
H1002       H  0.75185997  0.99845387  0.34349313     0.03400
H1003       H  0.74857524  0.99449904  0.15781325     0.03400
C1004       C  0.63051205  0.49452726  0.14619514    -0.07000
C1005       C  0.64780975  0.52189764  0.14359683    -0.18100
C1006       C  0.67697926  0.52311033  0.16950088     0.09000
C1007       C  0.68938979  0.99614576  0.19806195    -0.06900
C1008       C  0.67189019  0.96886590  0.20089686    -0.18100
C1009       C  0.64250875  0.96786899  0.17561636     0.10300
S1010       S  0.69695124  0.55983626  0.16495185    -0.33100
S1011       S  0.62189307  0.93163183  0.18163531    -0.33100
H1012       H  0.59037118  0.94648397  0.17607722     0.28300
H1013       H  0.71205536  0.55761887  0.21207068     0.28300
H1014       H  0.63856888  0.54241365  0.12112661     0.18900
H1015       H  0.68121709  0.94822698  0.22303609     0.18900
C1016       C  0.63403609  0.49989603  0.36563705    -0.07000
C1017       C  0.65877547  0.97504913  0.37350308    -0.18100
C1018       C  0.68694619  0.97287032  0.34481562     0.10200
C1019       C  0.69154897  0.99701373  0.30899715    -0.06900
C1020       C  0.66744285  0.52253535  0.30236027    -0.18100
C1021       C  0.63863940  0.52399798  0.32955152     0.10300
S1022       S  0.71516033  0.93774294  0.35391149    -0.33100
S1023       S  0.60918742  0.55739309  0.31649143    -0.33100
H1024       H  0.60105363  0.56267926  0.36711838     0.28300
H1025       H  0.72521995  0.93509851  0.30368134     0.28300
H1026       H  0.65550931  0.95608271  0.40041210     0.18900
H1027       H  0.67107482  0.54151259  0.27568716     0.18900
C1028       C  0.86598537  0.00109312  0.13866790    -0.07000
C1029       C  0.85509529  0.97076486  0.14844529    -0.18100
C1030       C  0.82634629  0.96793660  0.17478938     0.10200
C1031       C  0.80861050  0.99618051  0.19288197    -0.06900
C1032       C  0.81954436  0.52646919  0.18306711    -0.18100
C1033       C  0.84801826  0.52924471  0.15629367     0.10300
S1034       S  0.81408560  0.92761835  0.18337077    -0.33100
S1035       S  0.86054410  0.56931429  0.14726294    -0.33100
H1036       H  0.89390821  0.56031076  0.15077269     0.28300
H1037       H  0.78558755  0.93500057  0.21070530     0.28300
H1038       H  0.86884524  0.94916038  0.13474715     0.18900
H1039       H  0.80595959  0.54810918  0.19695531     0.18900
C1040       C  0.86794227  0.00100219  0.35931708    -0.07000
C1041       C  0.84498354  0.52791720  0.35769847    -0.18100
C1042       C  0.81664441  0.52746582  0.32963685     0.10200
C1043       C  0.81056973  0.99919492  0.30328243    -0.06900
C1044       C  0.83325859  0.97210598  0.30538992    -0.18100
C1045       C  0.86178706  0.97264581  0.33317823     0.10300
S1046       S  0.78940288  0.56383030  0.32870286    -0.33100
S1047       S  0.88835112  0.93591071  0.33595977    -0.33100
H1048       H  0.89745095  0.93966748  0.38621516     0.28300
H1049       H  0.77682773  0.55941559  0.28059133     0.28300
H1050       H  0.84953425  0.54984083  0.37743106     0.18900
H1051       H  0.82827902  0.95008360  0.28641253     0.18900
C1052       C  0.49597721  0.63144379  0.14365477    -0.07000
C1053       C  0.97125916  0.65648256  0.13683889    -0.18100
C1054       C  0.97041159  0.68509974  0.16449419     0.10200
C1055       C  0.49557044  0.68968104  0.19874657    -0.06900
C1056       C  0.52074682  0.66508113  0.20449687    -0.18100
C1057       C  0.52099659  0.63594454  0.17819288     0.10300
S1058       S  0.93621681  0.71441023  0.15478329    -0.33100
S1059       S  0.55450934  0.60620098  0.18946217    -0.33100
H1060       H  0.55911003  0.59822719  0.13861865     0.28300
H1061       H  0.93552585  0.72704946  0.20355164     0.28300
H1062       H  0.95172152  0.65336654  0.11090122     0.18900
H1063       H  0.54089363  0.66886430  0.22877436     0.18900
C1064       C  0.49718351  0.63460202  0.36604653    -0.07000
C1065       C  0.96776536  0.65119290  0.35153725    -0.18100
C1066       C  0.96698594  0.67984220  0.32396348     0.10200
C1067       C  0.49632435  0.69214127  0.31038486    -0.06900
C1068       C  0.52569566  0.67615028  0.32633139    -0.18100
C1069       C  0.52645918  0.64741570  0.35373034     0.10300
S1070       S  0.92791471  0.69915032  0.30690168    -0.33100
S1071       S  0.56537631  0.62885908  0.37275111    -0.33100
H1072       H  0.55478789  0.61502452  0.41717750     0.28300
H1073       H  0.93675280  0.73096392  0.30689128     0.28300
H1074       H  0.94520285  0.64153687  0.36132570     0.18900
H1075       H  0.54820772  0.68601684  0.31688524     0.18900
C1076       C  0.99948181  0.80860499  0.19409919    -0.07000
C1077       C  0.52944595  0.81658322  0.17617442    -0.18100
C1078       C  0.53210842  0.84526164  0.14981297     0.10200
C1079       C  0.00403912  0.86609363  0.13995710    -0.06900
C1080       C  0.97411713  0.85819019  0.15810013    -0.18100
C1081       C  0.97141473  0.82947770  0.18446850     0.10300
S1082       S  0.57213720  0.85482183  0.13263869    -0.33100
S1083       S  0.93142084  0.82103594  0.20382293    -0.33100
H1084       H  0.93774940  0.78765208  0.21121094     0.28300
H1085       H  0.56643123  0.88809180  0.14254808     0.28300
H1086       H  0.55104141  0.80079054  0.18414640     0.18900
H1087       H  0.95256811  0.87417108  0.15066811     0.18900
C1088       C  0.00366823  0.86926580  0.35646007    -0.07000
C1089       C  0.47468282  0.85442430  0.35593333    -0.18100
C1090       C  0.47252554  0.82505202  0.33078727     0.10200
C1091       C  0.99966080  0.81080865  0.30463008    -0.06900
C1092       C  0.02854529  0.82583382  0.30492628    -0.18100
C1093       C  0.03088344  0.85485995  0.33055127     0.10300
S1094       S  0.43537783  0.80560766  0.33297623    -0.33100
S1095       S  0.06936411  0.87191632  0.32907429    -0.33100
H1096       H  0.05763836  0.90428649  0.33683605     0.28300
H1097       H  0.41670271  0.83090899  0.35712853     0.28300
H1098       H  0.45404665  0.86549162  0.37633445     0.18900
H1099       H  0.04948463  0.81472382  0.28523735     0.18900
N1100       N  0.00222925  0.94539937  0.59310881    -0.07000
N1101       N  0.99263318  0.92528782  0.62714821    -0.59100
N1102       N  0.56882682  0.97932870  0.56158403    -0.06600
N1103       N  0.59991458  0.97721267  0.57257358    -0.61200
N1104       N  0.55192154  0.99559917  0.59643753    -0.06200
N1105       N  0.57122732  0.50508464  0.63180180    -0.59100
N1106       N  0.51947025  0.92945087  0.55831064    -0.05900
N1107       N  0.52218591  0.89821819  0.56811873    -0.61600
C1108       C  0.00522413  0.89601536  0.61096771     0.95200
C1109       C  0.60103816  0.49371391  0.61604730     0.95000
N1110       N  0.55370833  0.99809492  0.90852737    -0.07200
N1111       N  0.57386242  0.50883038  0.87555361    -0.59700
N1112       N  0.52052146  0.93102426  0.93989104    -0.05300
N1113       N  0.52229792  0.89991036  0.92919478    -0.60900
N1114       N  0.00400417  0.94789681  0.90519228    -0.07200
N1115       N  0.99397971  0.92857269  0.87034597    -0.59900
N1116       N  0.56978828  0.98135685  0.94370717    -0.04900
N1117       N  0.60111992  0.98048025  0.93552617    -0.61000
Mn1118     Mn  0.54518717  0.95471150  0.50076094     1.18400
C1119       C  0.60340527  0.49801180  0.89321942     0.97300
C1120       C  0.00535439  0.89878343  0.88612619     0.98000
N1121       N  0.49492699  0.55176550  0.59655907    -0.07200
N1122       N  0.50472200  0.57124180  0.63137934    -0.63500
N1123       N  0.92922087  0.51857467  0.55841097    -0.06000
N1124       N  0.89792956  0.52038855  0.56770786    -0.64200
N1125       N  0.94538422  0.50134783  0.59305471    -0.06700
N1126       N  0.92534880  0.99081926  0.62645358    -0.63800
N1127       N  0.97874744  0.56853677  0.56152224    -0.05600
N1128       N  0.97725339  0.59967512  0.57172009    -0.64500
Mn1129     Mn  0.49857946  0.49852762  0.59613566     1.10700
C1130       C  0.49385001  0.60112919  0.61507972     0.98500
C1131       C  0.89590475  0.00273033  0.60990639     0.98600
N1132       N  0.94741588  0.50398460  0.90526259    -0.06700
N1133       N  0.92800483  0.99344663  0.87095430    -0.62100
N1134       N  0.97994378  0.57009561  0.94361674    -0.06000
N1135       N  0.97808734  0.60146572  0.93524702    -0.58800
N1136       N  0.49733360  0.55440299  0.90876514    -0.07300
N1137       N  0.50796541  0.57490238  0.87610418    -0.61700
N1138       N  0.93053428  0.52009625  0.94025100    -0.06300
N1139       N  0.89936738  0.52102748  0.93039001    -0.58800
Mn1140     Mn  0.00064314  0.00111690  0.90540667     1.20200
Mn1141     Mn  0.95403392  0.54486449  0.00091321     1.10100
Cl1142     Cl  0.49960684  0.49978345  0.50081476    -0.86800
C1143       C  0.89809701  0.00398687  0.88746060     0.95500
C1144       C  0.49602622  0.60413840  0.89357641     0.95300
C1145       C  0.99857583  0.77999549  0.77712082     0.01400
C1146       C  0.99877161  0.77894294  0.72432202     0.01400
C1147       C  0.99845725  0.74924442  0.69964886    -0.19100
C1148       C  0.99704374  0.72044370  0.72668957     0.01400
C1149       C  0.99719849  0.72154221  0.77964726     0.01400
C1150       C  0.99825514  0.75119960  0.80425265    -0.19100
H1151       H  0.99849229  0.75189456  0.84484516     0.03400
H1152       H  0.99886753  0.74861984  0.65906001     0.03400
C1153       C  0.77995004  0.99675808  0.77576391     0.01400
C1154       C  0.77901130  0.99517897  0.72302495     0.01400
C1155       C  0.74926471  0.99494984  0.69840764    -0.19100
C1156       C  0.72036605  0.99578420  0.72561460     0.01400
C1157       C  0.72136059  0.99633248  0.77853019     0.01400
C1158       C  0.75113508  0.99711258  0.80296497    -0.19100
H1159       H  0.75186312  0.99840873  0.84350416     0.03400
H1160       H  0.74858348  0.99441758  0.65782687     0.03400
C1161       C  0.63050559  0.49452881  0.64623416    -0.07000
C1162       C  0.64782629  0.52188180  0.64360496    -0.18100
C1163       C  0.67699562  0.52308418  0.66951101     0.09000
C1164       C  0.68939838  0.99607485  0.69806557    -0.06900
C1165       C  0.67188429  0.96880564  0.70091898    -0.18100
C1166       C  0.64251044  0.96780911  0.67561548     0.10300
S1167       S  0.69699844  0.55978903  0.66492197    -0.33100
S1168       S  0.62187663  0.93158446  0.68166185    -0.33100
H1169       H  0.59036163  0.94643443  0.67600893     0.28300
H1170       H  0.71206254  0.55759625  0.71207306     0.28300
H1171       H  0.63860377  0.54239217  0.62110810     0.18900
H1172       H  0.68119440  0.94817457  0.72308911     0.18900
C1173       C  0.63405052  0.49986720  0.86568802    -0.07000
C1174       C  0.65878050  0.97503454  0.87355325    -0.18100
C1175       C  0.68694991  0.97284122  0.84486178     0.10200
C1176       C  0.69155000  0.99696531  0.80900939    -0.06900
C1177       C  0.66746461  0.52249357  0.80240839    -0.18100
C1178       C  0.63866215  0.52396641  0.82960256     0.10300
S1179       S  0.71516676  0.93772064  0.85400036    -0.33100
S1180       S  0.60922340  0.55737363  0.81655035    -0.33100
H1181       H  0.60109484  0.56266010  0.86717959     0.28300
H1182       H  0.72522613  0.93505006  0.80377230     0.28300
H1183       H  0.65551678  0.95608272  0.90048857     0.18900
H1184       H  0.67109995  0.54146740  0.77573048     0.18900
C1185       C  0.86597653  0.00107443  0.63865703    -0.07000
C1186       C  0.85509585  0.97073997  0.64842044    -0.18100
C1187       C  0.82635429  0.96789638  0.67477751     0.10200
C1188       C  0.80861422  0.99613092  0.69289346    -0.06900
C1189       C  0.81950046  0.52645829  0.68300981    -0.18100
C1190       C  0.84797834  0.52925284  0.65625371     0.10300
S1191       S  0.81410371  0.92757233  0.68333404    -0.33100
S1192       S  0.86046724  0.56933476  0.64720090    -0.33100
H1193       H  0.89383551  0.56036342  0.65075367     0.28300
H1194       H  0.78568148  0.93492895  0.71086621     0.28300
H1195       H  0.86884936  0.94914219  0.63470596     0.18900
H1196       H  0.80589076  0.54809202  0.69686988     0.18900
C1197       C  0.86795484  0.00097423  0.85929806    -0.07000
C1198       C  0.84500654  0.52786917  0.85765930    -0.18100
C1199       C  0.81667010  0.52741716  0.82959039     0.10200
C1200       C  0.81057401  0.99914435  0.80328857    -0.06900
C1201       C  0.83326016  0.97205392  0.80542162    -0.18100
C1202       C  0.86179323  0.97260533  0.83319673     0.10300
S1203       S  0.78944224  0.56379184  0.82861434    -0.33100
S1204       S  0.88835782  0.93587156  0.83600391    -0.33100
H1205       H  0.89746583  0.93964896  0.88625083     0.28300
H1206       H  0.77682869  0.55934342  0.78053814     0.28300
H1207       H  0.84956437  0.54979924  0.87736861     0.18900
H1208       H  0.82827675  0.95002353  0.78646929     0.18900
C1209       C  0.49595420  0.63144434  0.64363495    -0.07000
C1210       C  0.97126906  0.65646033  0.63688537    -0.18100
C1211       C  0.97041989  0.68508169  0.66452801     0.10200
C1212       C  0.49554807  0.68968660  0.69870956    -0.06900
C1213       C  0.52073734  0.66509813  0.70443576    -0.18100
C1214       C  0.52098550  0.63595762  0.67814476     0.10300
S1215       S  0.93623481  0.71439800  0.65478212    -0.33100
S1216       S  0.55450787  0.60622295  0.68940060    -0.33100
H1217       H  0.55909082  0.59823658  0.63855851     0.28300
H1218       H  0.93552319  0.72703192  0.70355513     0.28300
H1219       H  0.95173773  0.65334521  0.61093554     0.18900
H1220       H  0.54089270  0.66889167  0.72868958     0.18900
C1221       C  0.49717381  0.63460162  0.86603123    -0.07000
C1222       C  0.96775323  0.65116304  0.85152167    -0.18100
C1223       C  0.96697093  0.67982532  0.82398200     0.10200
C1224       C  0.49629481  0.69213017  0.81034403    -0.06900
C1225       C  0.52567268  0.67612928  0.82624101    -0.18100
C1226       C  0.52644542  0.64740098  0.85365391     0.10300
S1227       S  0.92789849  0.69914524  0.80695739    -0.33100
S1228       S  0.56536826  0.62883911  0.87263292    -0.33100
H1229       H  0.55480205  0.61507148  0.91712803     0.28300
H1230       H  0.93673855  0.73095808  0.80702866     0.28300
H1231       H  0.94519200  0.64149940  0.86129630     0.18900
H1232       H  0.54818236  0.68598837  0.81675756     0.18900
C1233       C  0.99948897  0.80858943  0.69410873    -0.07000
C1234       C  0.52943987  0.81655059  0.67609682    -0.18100
C1235       C  0.53210485  0.84522679  0.64972895     0.10200
C1236       C  0.00404980  0.86607126  0.63993988    -0.06900
C1237       C  0.97413260  0.85818605  0.65812992    -0.18100
C1238       C  0.97142895  0.82947955  0.68451470     0.10300
S1239       S  0.57213178  0.85476211  0.63249895    -0.33100
S1240       S  0.93144282  0.82106711  0.70394878    -0.33100
H1241       H  0.93774426  0.78766781  0.71120744     0.28300
H1242       H  0.56645658  0.88802884  0.64245611     0.28300
H1243       H  0.55102938  0.80073842  0.68402235     0.18900
H1244       H  0.95258741  0.87417910  0.65072839     0.18900
C1245       C  0.00367219  0.86927497  0.85642307    -0.07000
C1246       C  0.47472107  0.85440504  0.85600366    -0.18100
C1247       C  0.47255582  0.82502098  0.83088986     0.10200
C1248       C  0.99965568  0.81080265  0.80464588    -0.06900
C1249       C  0.02853369  0.82584086  0.80488298    -0.18100
C1250       C  0.03086730  0.85488108  0.83046688     0.10300
S1251       S  0.43542942  0.80554396  0.83321813    -0.33100
S1252       S  0.06930265  0.87200757  0.82889063    -0.33100
H1253       H  0.05737832  0.90441368  0.83574782     0.28300
H1254       H  0.41686286  0.83066897  0.85795583     0.28300
H1255       H  0.45410652  0.86546591  0.87646100     0.18900
H1256       H  0.04946467  0.81473947  0.78516393     0.18900
loop_ 
_geom_bond_atom_site_label_1 
_geom_bond_atom_site_label_2 
_geom_bond_distance 
_geom_bond_site_symmetry_2 
_ccdc_geom_bond_type 
N1            N2   1.320       .  A
N1          N635   1.316       .  A
N1         Mn972   2.200       .  S
N2            C9   1.352       .  A
N3            N5   1.316       .  A
N3            N4   1.320       .  A
N3          Mn19   2.198       .  S
N4          C324   1.350       .  A
N5          N320   1.322       .  A
N5         Mn344   2.208   1_455  S
N6          N319   1.322   1_545  A
N6           C10   1.353   1_545  A
N7            N8   1.319       .  A
N7          N629   1.316       .  A
N7          Mn19   2.192       .  S
N8          C637   1.351       .  A
C9          N636   1.351       .  A
C9          C137   1.469       .  S
C10         N318   1.350       .  A
C10          C62   1.469       .  S
N11          N17   1.315       .  A
N11         N326   1.320       .  A
N11        Mn669   2.199       .  S
N12         N325   1.320   1_545  A
N12          C20   1.354   1_545  A
N13          N14   1.320       .  A
N13         N643   1.317       .  A
N13        Mn176   2.202       .  S
N14         C649   1.351       .  A
N15          N16   1.321       .  A
N15         N641   1.317       .  A
N15         Mn41   2.204       .  S
N16          C21   1.352       .  A
N17          N18   1.317       .  A
N17        Mn176   2.189       .  S
N18         C334   1.352       .  A
Mn19        N170   2.202   1_554  S
Mn19        N174   2.189   1_554  S
Mn19       Cl357   2.542   1_455  S
C20         N332   1.352       .  A
C20          C74   1.478       .  S
C21         N642   1.351       .  A
C21         C146   1.468       .  S
N22          N23   1.321   1_655  A
N22         N656   1.315       .  A
N22         Mn30   2.204   1_545  S
N23          C31   1.354   1_455  A
N24          N26   1.316       .  A
N24          N25   1.319       .  A
N24        Mn199   2.194       .  S
N25         C346   1.351       .  A
N26         N341   1.321   1_545  A
N26        Mn658   2.204   1_545  S
N27         N340   1.321       .  A
N27          C32   1.352       .  A
N28          N29   1.318       .  A
N28         N650   1.315       .  A
N28        Mn199   2.196       .  S
N29         C659   1.353       .  A
Mn30        N943   2.200   1_655  S
Mn30        N319   2.208   1_655  S
Mn30        N654   2.204   1_565  S
Mn30        Cl43   2.546       .  S
C31         N657   1.353       .  A
C31         C110   1.482       .  S
C32         N339   1.351       .  A
C32          C86   1.468       .  S
N33          N39   1.315       .  A
N33         N348   1.321   1_545  A
N33        Mn355   2.204       .  S
N34         N347   1.321       .  A
N34          C44   1.354       .  A
N35          N36   1.318       .  A
N35         N665   1.316       .  A
N35         Mn42   2.191       .  S
N36         C673   1.349       .  A
N37          N38   1.322   1_655  A
N37         N663   1.316       .  A
N37        Mn983   2.208   1_655  S
N38          C45   1.354   1_455  A
N39          N40   1.319       .  A
N39         Mn42   2.195       .  S
N40         C358   1.352       .  A
Mn41        N639   2.199       .  S
Mn41        N347   2.204       .  S
Mn41        N979   2.208       .  S
Mn41      Cl1142   2.549       .  S
Mn42        N181   2.194       .  S
Mn42        N185   2.196       .  S
Mn42       Cl828   2.542   1_545  S
Cl43       Mn333   2.542   1_655  S
Cl43      Mn1140   2.549   1_664  S
Cl43       Mn827   2.542   1_565  S
C44         N354   1.352       .  A
C44          C98   1.476       .  S
C45         N664   1.349       .  A
C45         C122   1.468       .  S
C46         C149   1.481       .  S
C46          C47   1.411       .  A
C46          C51   1.399       .  A
C47         C134   1.474       .  S
C47          C48   1.400       .  A
C48          C49   1.403       .  A
C48          H53   1.084       .  S
C49         C741   1.487       .  S
C49          C50   1.415       .  A
C50         C753   1.475       .  S
C50          C51   1.401       .  A
C51          H52   1.084       .  S
C54         C101   1.480       .  S
C54          C55   1.411       .  A
C54          C59   1.399       .  A
C55          C89   1.473       .  S
C55          C56   1.401       .  A
C56          C57   1.401       .  A
C56          H61   1.084       .  S
C57          C65   1.481       .  S
C57          C58   1.414       .  A
C58          C77   1.480       .  S
C58          C59   1.402       .  A
C59          H60   1.085       .  S
C62          C63   1.400   1_565  A
C62         C381   1.412       .  A
C63          C64   1.400       .  A
C63          H72   1.084       .  S
C64         C379   1.414   1_545  A
C64          S68   1.805       .  S
C65          C66   1.402       .  A
C65         C378   1.414       .  A
C66          C67   1.399       .  A
C66          H73   1.084       .  S
C67         C376   1.412       .  A
C67          S69   1.805       .  S
S68          H71   1.405       .  S
S69          H70   1.405       .  S
C74          C79   1.415   1_565  A
C74         C389   1.405       .  A
C75          C76   1.395       .  A
C75         C388   1.405       .  A
C75          H84   1.084       .  S
C76          C77   1.411       .  A
C76          S80   1.805       .  S
C77         C392   1.403       .  A
C78          C79   1.397       .  A
C78         C391   1.403   1_545  A
C78          H85   1.083       .  S
C79          S81   1.800       .  S
S80          H83   1.406       .  S
S81          H82   1.406       .  S
C86          C87   1.401       .  A
C86         C405   1.412       .  A
C87          C88   1.400       .  A
C87          H96   1.084       .  S
C88          C89   1.414       .  A
C88          S92   1.809       .  S
C89         C404   1.401       .  A
C90          C91   1.396       .  A
C90         C403   1.401   1_545  A
C90          H97   1.084       .  S
C91         C400   1.412       .  A
C91          S93   1.804       .  S
S92          H95   1.402       .  S
S93          H94   1.406       .  S
C98         C103   1.413       .  A
C98         C413   1.404       .  A
C99         C100   1.397       .  A
C99         C412   1.404       .  A
C99         H108   1.084       .  S
C100        C415   1.411   1_545  A
C100        S104   1.805       .  S
C101        C102   1.403       .  A
C101        C414   1.411       .  A
C102        C103   1.400       .  A
C102        H109   1.082       .  S
C103        S105   1.803       .  S
S104        H107   1.405       .  S
S105        H106   1.407       .  S
C110        C115   1.415   1_655  A
C110        C739   1.406       .  A
C111        C112   1.398       .  A
C111        C738   1.406       .  A
C111        H120   1.084       .  S
C112        C741   1.413       .  A
C112        S116   1.805       .  S
C113        C677   1.487       .  S
C113        C114   1.404   1_655  A
C113        C740   1.413       .  A
C114        C115   1.399       .  A
C114        H121   1.081       .  S
C115        S117   1.802       .  S
S116        H119   1.404       .  S
S117        H118   1.407       .  S
C122        C127   1.410   1_655  A
C122        C751   1.403       .  A
C123        C124   1.397       .  A
C123        C750   1.403       .  A
C123        H132   1.084       .  S
C124        C753   1.410       .  A
C124        S128   1.804       .  S
C125        C678   1.475       .  S
C125        C126   1.402   1_655  A
C125        C752   1.410       .  A
C126        C127   1.398       .  A
C126        H133   1.084       .  S
C127        S129   1.801       .  S
S128        H131   1.403       .  S
S129        H130   1.406       .  S
C134        C139   1.413       .  A
C134        C763   1.401       .  A
C135        C136   1.396       .  A
C135        C762   1.401   1_455  A
C135        H144   1.084       .  S
C136        C765   1.413       .  A
C136        S140   1.803       .  S
C137        C138   1.400       .  A
C137        C764   1.413       .  A
C138        C139   1.398       .  A
C138        H145   1.084       .  S
C139        S141   1.804       .  S
S140        H143   1.407       .  S
S141        H142   1.402       .  S
C146        C151   1.413       .  A
C146        C775   1.401       .  A
C147        C148   1.403       .  A
C147        C774   1.401   1_655  A
C147        H156   1.083       .  S
C148        C777   1.411       .  A
C148        S152   1.806       .  S
C149        C150   1.401       .  A
C149        C776   1.411       .  A
C150        C151   1.398       .  A
C150        H157   1.084       .  S
C151        S153   1.806       .  S
S152        H155   1.407       .  S
S153        H154   1.405       .  S
N158        N159   1.320       .  A
N158        N792   1.316       .  A
N158      Mn1129   2.201       .  S
N159        C166   1.352       .  A
N160        N162   1.316       .  A
N160        N161   1.320       .  A
N160       Mn176   2.198       .  S
N161        C481   1.350       .  A
N162        N477   1.322       .  A
N162       Mn501   2.208   1_455  S
N163        N476   1.322   1_545  A
N163        C167   1.353   1_545  A
N164        N786   1.316       .  A
N164        N165   1.319       .  A
N164       Mn176   2.192       .  S
N165        C794   1.351       .  A
C166        N793   1.351       .  A
C166        C294   1.469       .  S
C167        N475   1.350       .  A
C167        C219   1.469       .  S
N168        N174   1.315       .  A
N168        N483   1.320       .  A
N168       Mn826   2.199       .  S
N169        N482   1.320   1_545  A
N169        C177   1.354   1_545  A
N170        N171   1.320       .  A
N170        N800   1.317       .  A
N171        C806   1.351       .  A
N172        N798   1.317       .  A
N172        N173   1.321       .  A
N172       Mn198   2.203       .  S
N173        C178   1.352       .  A
N174        N175   1.317       .  A
N175        C491   1.352       .  A
Mn176      Cl514   2.542   1_455  S
C177        N489   1.352       .  A
C177        C231   1.478       .  S
C178        N799   1.351       .  A
C178        C303   1.468       .  S
N179        N180   1.321   1_655  A
N179        N813   1.315       .  A
N179       Mn187   2.204   1_545  S
N180        C188   1.354   1_455  A
N181        N183   1.316       .  A
N181        N182   1.319       .  A
N182        C503   1.351       .  A
N183        N498   1.321   1_545  A
N183       Mn815   2.204   1_545  S
N184        N497   1.321       .  A
N184        C189   1.352       .  A
N185        N807   1.315       .  A
N185        N186   1.318       .  A
N186        C816   1.353       .  A
Mn187      N1100   2.201   1_655  S
Mn187       N476   2.208   1_655  S
Mn187       N811   2.204   1_565  S
Mn187      Cl200   2.546       .  S
C188        N814   1.353       .  A
C188        C267   1.482       .  S
C189        N496   1.351       .  A
C189        C243   1.468       .  S
N190        N505   1.321   1_545  A
N190        N196   1.315       .  A
N190       Mn512   2.204       .  S
N191        N504   1.321       .  A
N191        C201   1.354       .  A
N192        N193   1.318       .  A
N192        N822   1.316       .  A
N192       Mn199   2.191   1_556  S
N193        C830   1.349       .  A
N194        N820   1.316       .  A
N194        N195   1.322   1_655  A
N194      Mn1140   2.207   1_655  S
N195        C202   1.354   1_455  A
N196        N197   1.319       .  A
N196       Mn199   2.195   1_556  S
N197        C515   1.352       .  A
Mn198       N796   2.199       .  S
Mn198       N504   2.204       .  S
Mn198      N1136   2.208       .  S
Mn198      Cl985   2.549   1_556  S
Mn199      Cl671   2.542   1_545  S
Cl200      Mn490   2.542   1_655  S
Cl200      Mn983   2.549   1_665  S
Cl200      Mn670   2.542   1_565  S
C201        N511   1.352       .  A
C201        C255   1.476       .  S
C202        N821   1.349       .  A
C202        C279   1.468       .  S
C203        C306   1.481       .  S
C203        C204   1.411       .  A
C203        C208   1.399       .  A
C204        C291   1.475       .  S
C204        C205   1.400       .  A
C205        C206   1.403       .  A
C205        H210   1.084       .  S
C206        C898   1.487       .  S
C206        C207   1.415       .  A
C207        C910   1.475       .  S
C207        C208   1.401       .  A
C208        H209   1.084       .  S
C211        C258   1.480       .  S
C211        C212   1.411       .  A
C211        C216   1.399       .  A
C212        C246   1.473       .  S
C212        C213   1.401       .  A
C213        C214   1.401       .  A
C213        H218   1.084       .  S
C214        C222   1.481       .  S
C214        C215   1.414       .  A
C215        C234   1.480       .  S
C215        C216   1.402       .  A
C216        H217   1.085       .  S
C219        C220   1.400   1_565  A
C219        C538   1.412       .  A
C220        C221   1.400       .  A
C220        H229   1.084       .  S
C221        C536   1.414   1_545  A
C221        S225   1.805       .  S
C222        C535   1.414       .  A
C222        C223   1.402       .  A
C223        C224   1.399       .  A
C223        H230   1.084       .  S
C224        C533   1.412       .  A
C224        S226   1.805       .  S
S225        H228   1.405       .  S
S226        H227   1.405       .  S
C231        C546   1.405       .  A
C231        C236   1.414   1_565  A
C232        C545   1.405       .  A
C232        C233   1.395       .  A
C232        H241   1.084       .  S
C233        C234   1.411       .  A
C233        S237   1.805       .  S
C234        C549   1.403       .  A
C235        C548   1.403   1_545  A
C235        C236   1.397       .  A
C235        H242   1.083       .  S
C236        S238   1.800       .  S
S237        H240   1.406       .  S
S238        H239   1.406       .  S
C243        C244   1.401       .  A
C243        C562   1.412       .  A
C244        C245   1.400       .  A
C244        H253   1.084       .  S
C245        C246   1.414       .  A
C245        S249   1.809       .  S
C246        C561   1.401       .  A
C247        C560   1.401   1_545  A
C247        C248   1.396       .  A
C247        H254   1.084       .  S
C248        C557   1.412       .  A
C248        S250   1.804       .  S
S249        H252   1.402       .  S
S250        H251   1.406       .  S
C255        C570   1.404       .  A
C255        C260   1.413       .  A
C256        C569   1.404       .  A
C256        C257   1.397       .  A
C256        H265   1.084       .  S
C257        C572   1.411   1_545  A
C257        S261   1.805       .  S
C258        C571   1.411       .  A
C258        C259   1.403       .  A
C259        C260   1.400       .  A
C259        H266   1.082       .  S
C260        S262   1.803       .  S
S261        H264   1.405       .  S
S262        H263   1.407       .  S
C267        C896   1.406       .  A
C267        C272   1.415   1_655  A
C268        C895   1.406       .  A
C268        C269   1.398       .  A
C268        H277   1.084       .  S
C269        C898   1.413       .  A
C269        S273   1.805       .  S
C270        C834   1.487       .  S
C270        C897   1.413       .  A
C270        C271   1.404   1_655  A
C271        C272   1.399       .  A
C271        H278   1.081       .  S
C272        S274   1.802       .  S
S273        H276   1.404       .  S
S274        H275   1.407       .  S
C279        C908   1.402       .  A
C279        C284   1.410   1_655  A
C280        C907   1.402       .  A
C280        C281   1.397       .  A
C280        H289   1.084       .  S
C281        C910   1.410       .  A
C281        S285   1.804       .  S
C282        C835   1.475       .  S
C282        C909   1.410       .  A
C282        C283   1.402   1_655  A
C283        C284   1.398       .  A
C283        H290   1.084       .  S
C284        S286   1.801       .  S
S285        H288   1.403       .  S
S286        H287   1.406       .  S
C291        C920   1.401       .  A
C291        C296   1.413       .  A
C292        C919   1.401   1_455  A
C292        C293   1.396       .  A
C292        H301   1.084       .  S
C293        C922   1.413       .  A
C293        S297   1.803       .  S
C294        C921   1.413       .  A
C294        C295   1.400       .  A
C295        C296   1.398       .  A
C295        H302   1.084       .  S
C296        S298   1.804       .  S
S297        H300   1.407       .  S
S298        H299   1.402       .  S
C303        C932   1.401       .  A
C303        C308   1.413       .  A
C304        C931   1.401   1_655  A
C304        C305   1.403       .  A
C304        H313   1.083       .  S
C305        C934   1.411       .  A
C305        S309   1.806       .  S
C306        C933   1.411       .  A
C306        C307   1.402       .  A
C307        C308   1.398       .  A
C307        H314   1.084       .  S
C308        S310   1.806       .  S
S309        H312   1.407       .  S
S310        H311   1.405       .  S
N315        N316   1.320       .  A
N315        N949   1.316       .  A
N315       Mn658   2.201       .  S
N316        C323   1.352       .  A
N317        N319   1.316       .  A
N317        N318   1.320       .  A
N317       Mn333   2.198       .  S
N320        C324   1.353       .  A
N321        N943   1.316       .  A
N321        N322   1.319       .  A
N321       Mn333   2.192       .  S
N322        C951   1.351       .  A
C323        N950   1.351       .  A
C323        C451   1.469       .  S
C324        C376   1.469       .  S
N325        N331   1.315       .  A
N325       Mn983   2.199   1_565  S
N326        C334   1.354       .  A
N327        N328   1.320       .  A
N327        N957   1.317       .  A
N327       Mn490   2.202       .  S
N328        C963   1.351       .  A
N329        N955   1.317       .  A
N329        N330   1.321       .  A
N329       Mn355   2.204   1_565  S
N330        C335   1.352       .  A
N331        N332   1.317       .  A
N331       Mn490   2.189       .  S
Mn333       N484   2.202   1_554  S
Mn333       N488   2.189   1_554  S
C334        C388   1.478       .  S
C335        N956   1.351       .  A
C335        C460   1.468       .  S
N336        N337   1.321   1_655  A
N336        N970   1.315       .  A
N336       Mn344   2.204       .  S
N337        C345   1.354   1_455  A
N338        N340   1.316       .  A
N338        N339   1.319       .  A
N338       Mn513   2.194       .  S
N340       Mn972   2.204       .  S
N341        C346   1.352   1_565  A
N342        N964   1.315       .  A
N342        N343   1.318       .  A
N342       Mn513   2.196       .  S
N343        C973   1.353       .  A
Mn344       N629   2.200   1_655  S
Mn344       N968   2.204       .  S
Mn344      Cl357   2.546       .  S
C345        N971   1.353       .  A
C345        C424   1.482       .  S
C346        C400   1.468       .  S
N347        N353   1.315       .  A
N348        C358   1.354   1_565  A
N349        N350   1.318       .  A
N349        N979   1.316       .  A
N349       Mn356   2.191       .  S
N350        C987   1.349       .  A
N351        N977   1.316       .  A
N351        N352   1.322   1_655  A
N351       Mn669   2.208   1_655  S
N352        C359   1.354   1_455  A
N353        N354   1.319       .  A
N353       Mn356   2.195       .  S
Mn355       N953   2.199   1_545  S
Mn355       N665   2.208       .  S
Mn355      Cl828   2.549   1_545  S
Mn356       N495   2.194       .  S
Mn356       N499   2.196       .  S
Mn356     Cl1142   2.542       .  S
Cl357      Mn826   2.549   1_654  S
Cl357     Mn1141   2.542       .  S
C358        C412   1.476       .  S
C359        N978   1.349       .  A
C359        C436   1.468       .  S
C360        C463   1.481       .  S
C360        C361   1.411       .  A
C360        C365   1.399       .  A
C361        C448   1.474       .  S
C361        C362   1.400       .  A
C362        C363   1.403       .  A
C362        H367   1.084       .  S
C363       C1055   1.487       .  S
C363        C364   1.415       .  A
C364       C1067   1.475       .  S
C364        C365   1.401       .  A
C365        H366   1.084       .  S
C368        C415   1.480       .  S
C368        C369   1.411       .  A
C368        C373   1.399       .  A
C369        C403   1.473       .  S
C369        C370   1.401       .  A
C370        C371   1.401       .  A
C370        H375   1.084       .  S
C371        C379   1.481       .  S
C371        C372   1.414       .  A
C372        C391   1.480       .  S
C372        C373   1.402       .  A
C373        H374   1.085       .  S
C376        C377   1.400       .  A
C377        C378   1.400       .  A
C377        H386   1.084       .  S
C378        S382   1.805       .  S
C379        C380   1.402       .  A
C380        C381   1.399       .  A
C380        H387   1.084       .  S
C381        S383   1.805       .  S
S382        H385   1.405       .  S
S383        H384   1.405       .  S
C388        C393   1.415       .  A
C389        C390   1.395       .  A
C389        H398   1.084       .  S
C390        C391   1.411       .  A
C390        S394   1.805       .  S
C392        C393   1.397       .  A
C392        H399   1.083       .  S
C393        S395   1.800       .  S
S394        H397   1.406       .  S
S395        H396   1.406       .  S
C400        C401   1.401   1_545  A
C401        C402   1.400       .  A
C401        H410   1.084       .  S
C402        C403   1.414       .  A
C402        S406   1.809       .  S
C404        C405   1.396       .  A
C404        H411   1.084       .  S
C405        S407   1.804       .  S
S406        H409   1.402       .  S
S407        H408   1.406       .  S
C412        C417   1.413   1_545  A
C413        C414   1.397       .  A
C413        H422   1.084       .  S
C414        S418   1.805       .  S
C415        C416   1.403       .  A
C416        C417   1.400       .  A
C416        H423   1.082       .  S
C417        S419   1.803       .  S
S418        H421   1.405       .  S
S419        H420   1.407       .  S
C424       C1053   1.406       .  A
C424        C429   1.415   1_655  A
C425       C1052   1.406       .  A
C425        C426   1.398       .  A
C425        H434   1.084       .  S
C426       C1055   1.413       .  A
C426        S430   1.805       .  S
C427        C991   1.487       .  S
C427       C1054   1.413       .  A
C427        C428   1.404   1_655  A
C428        C429   1.399       .  A
C428        H435   1.081       .  S
C429        S431   1.802       .  S
S430        H433   1.404       .  S
S431        H432   1.407       .  S
C436       C1065   1.403       .  A
C436        C441   1.410   1_655  A
C437       C1064   1.403       .  A
C437        C438   1.397       .  A
C437        H446   1.084       .  S
C438       C1067   1.410       .  A
C438        S442   1.804       .  S
C439        C992   1.475       .  S
C439       C1066   1.410       .  A
C439        C440   1.402   1_655  A
C440        C441   1.398       .  A
C440        H447   1.084       .  S
C441        S443   1.801       .  S
S442        H445   1.403       .  S
S443        H444   1.406       .  S
C448       C1077   1.401       .  A
C448        C453   1.413       .  A
C449       C1076   1.401   1_455  A
C449        C450   1.396       .  A
C449        H458   1.084       .  S
C450       C1079   1.413       .  A
C450        S454   1.803       .  S
C451       C1078   1.413       .  A
C451        C452   1.400       .  A
C452        C453   1.398       .  A
C452        H459   1.084       .  S
C453        S455   1.804       .  S
S454        H457   1.407       .  S
S455        H456   1.402       .  S
C460       C1089   1.401       .  A
C460        C465   1.413       .  A
C461       C1088   1.401   1_655  A
C461        C462   1.403       .  A
C461        H470   1.083       .  S
C462       C1091   1.411       .  A
C462        S466   1.806       .  S
C463       C1090   1.411       .  A
C463        C464   1.401       .  A
C464        C465   1.398       .  A
C464        H471   1.084       .  S
C465        S467   1.807       .  S
S466        H469   1.407       .  S
S467        H468   1.404       .  S
N472        N473   1.320       .  A
N472       N1106   1.316       .  A
N472       Mn815   2.201       .  S
N473        C480   1.352       .  A
N474        N476   1.316       .  A
N474        N475   1.320       .  A
N474       Mn490   2.198       .  S
N477        C481   1.353       .  A
N478       N1100   1.316       .  A
N478        N479   1.319       .  A
N478       Mn490   2.192       .  S
N479       C1108   1.351       .  A
C480       N1107   1.351       .  A
C480        C608   1.469       .  S
C481        C533   1.469       .  S
N482        N488   1.315       .  A
N482      Mn1140   2.199   1_565  S
N483        C491   1.354       .  A
N484        N485   1.320       .  A
N484       N1114   1.317       .  A
N485       C1120   1.351       .  A
N486       N1112   1.317       .  A
N486        N487   1.321       .  A
N486       Mn512   2.203   1_565  S
N487        C492   1.352       .  A
N488        N489   1.317       .  A
C491        C545   1.478       .  S
C492       N1113   1.351       .  A
C492        C617   1.468       .  S
N493        N494   1.321   1_655  A
N493       N1127   1.315       .  A
N493       Mn501   2.204       .  S
N494        C502   1.354   1_455  A
N495        N497   1.316       .  A
N495        N496   1.319       .  A
N497      Mn1129   2.204       .  S
N498        C503   1.352   1_565  A
N499       N1121   1.315       .  A
N499        N500   1.318       .  A
N500       C1130   1.353       .  A
Mn501       N786   2.201   1_655  S
Mn501      N1125   2.204       .  S
Mn501      Cl514   2.546       .  S
C502       N1128   1.353       .  A
C502        C581   1.482       .  S
C503        C557   1.468       .  S
N504        N510   1.315       .  A
N505        C515   1.354   1_565  A
N506        N507   1.318       .  A
N506       N1136   1.316       .  A
N506       Mn513   2.191   1_556  S
N507       C1144   1.349       .  A
N508       N1134   1.316       .  A
N508        N509   1.322   1_655  A
N508       Mn826   2.207   1_655  S
N509        C516   1.354   1_455  A
N510        N511   1.319       .  A
N510       Mn513   2.195   1_556  S
Mn512      N1110   2.199   1_545  S
Mn512       N822   2.207       .  S
Mn512      Cl671   2.549   1_546  S
Mn513      Cl985   2.542       .  S
Cl514      Mn669   2.549   1_655  S
Cl514      Mn984   2.542       .  S
C515        C569   1.476       .  S
C516       N1135   1.349       .  A
C516        C593   1.468       .  S
C517        C620   1.481       .  S
C517        C518   1.411       .  A
C517        C522   1.399       .  A
C518        C605   1.474       .  S
C518        C519   1.400       .  A
C519        C520   1.403       .  A
C519        H524   1.084       .  S
C520       C1212   1.487       .  S
C520        C521   1.415       .  A
C521       C1224   1.475       .  S
C521        C522   1.401       .  A
C522        H523   1.084       .  S
C525        C572   1.480       .  S
C525        C526   1.411       .  A
C525        C530   1.399       .  A
C526        C560   1.473       .  S
C526        C527   1.401       .  A
C527        C528   1.401       .  A
C527        H532   1.084       .  S
C528        C536   1.481       .  S
C528        C529   1.414       .  A
C529        C548   1.480       .  S
C529        C530   1.402       .  A
C530        H531   1.085       .  S
C533        C534   1.400       .  A
C534        C535   1.400       .  A
C534        H543   1.084       .  S
C535        S539   1.805       .  S
C536        C537   1.402       .  A
C537        C538   1.399       .  A
C537        H544   1.084       .  S
C538        S540   1.805       .  S
S539        H542   1.405       .  S
S540        H541   1.405       .  S
C545        C550   1.414       .  A
C546        C547   1.395       .  A
C546        H555   1.084       .  S
C547        C548   1.411       .  A
C547        S551   1.805       .  S
C549        C550   1.397       .  A
C549        H556   1.083       .  S
C550        S552   1.800       .  S
S551        H554   1.406       .  S
S552        H553   1.406       .  S
C557        C558   1.401   1_545  A
C558        C559   1.400       .  A
C558        H567   1.084       .  S
C559        C560   1.414       .  A
C559        S563   1.809       .  S
C561        C562   1.396       .  A
C561        H568   1.084       .  S
C562        S564   1.804       .  S
S563        H566   1.402       .  S
S564        H565   1.406       .  S
C569        C574   1.413   1_545  A
C570        C571   1.397       .  A
C570        H579   1.084       .  S
C571        S575   1.805       .  S
C572        C573   1.403       .  A
C573        C574   1.400       .  A
C573        H580   1.082       .  S
C574        S576   1.803       .  S
S575        H578   1.405       .  S
S576        H577   1.407       .  S
C581       C1210   1.406       .  A
C581        C586   1.415   1_655  A
C582       C1209   1.406       .  A
C582        C583   1.398       .  A
C582        H591   1.084       .  S
C583       C1212   1.413       .  A
C583        S587   1.805       .  S
C584       C1148   1.487       .  S
C584       C1211   1.413       .  A
C584        C585   1.404   1_655  A
C585        C586   1.399       .  A
C585        H592   1.081       .  S
C586        S588   1.802       .  S
S587        H590   1.404       .  S
S588        H589   1.407       .  S
C593       C1222   1.402       .  A
C593        C598   1.410   1_655  A
C594       C1221   1.403       .  A
C594        C595   1.397       .  A
C594        H603   1.084       .  S
C595       C1224   1.410       .  A
C595        S599   1.804       .  S
C596       C1149   1.475       .  S
C596       C1223   1.410       .  A
C596        C597   1.402   1_655  A
C597        C598   1.398       .  A
C597        H604   1.084       .  S
C598        S600   1.801       .  S
S599        H602   1.403       .  S
S600        H601   1.406       .  S
C605       C1234   1.401       .  A
C605        C610   1.413       .  A
C606       C1233   1.401   1_455  A
C606        C607   1.396       .  A
C606        H615   1.084       .  S
C607       C1236   1.413       .  A
C607        S611   1.803       .  S
C608       C1235   1.413       .  A
C608        C609   1.400       .  A
C609        C610   1.398       .  A
C609        H616   1.084       .  S
C610        S612   1.804       .  S
S611        H614   1.407       .  S
S612        H613   1.402       .  S
C617       C1246   1.401       .  A
C617        C622   1.412       .  A
C618       C1245   1.401   1_655  A
C618        C619   1.403       .  A
C618        H627   1.083       .  S
C619       C1248   1.411       .  A
C619        S623   1.806       .  S
C620       C1247   1.411       .  A
C620        C621   1.402       .  A
C621        C622   1.398       .  A
C621        H628   1.084       .  S
C622        S624   1.806       .  S
S623        H626   1.407       .  S
S624        H625   1.405       .  S
N629        N630   1.320   1_455  A
N630        C637   1.352   1_655  A
N631        N633   1.316       .  A
N631        N632   1.320       .  A
N631       Mn647   2.198       .  S
N632        C952   1.350       .  A
N633        N948   1.322       .  A
N633       Mn972   2.208       .  S
N634        N947   1.322   1_545  A
N634        C638   1.353   1_545  A
N635        N636   1.319       .  A
N635       Mn647   2.192       .  S
C637        C765   1.469       .  S
C638        N946   1.350       .  A
C638        C690   1.469       .  S
N639        N645   1.315       .  A
N639        N954   1.320       .  A
N640        N953   1.320   1_545  A
N640        C648   1.354   1_545  A
N641        N642   1.320       .  A
N641       Mn804   2.202       .  S
N643        N644   1.321   1_455  A
N643       Mn669   2.204       .  S
N644        C649   1.352   1_655  A
N645        N646   1.317       .  A
N645       Mn804   2.189       .  S
N646        C962   1.352       .  A
Mn647       N798   2.202   1_554  S
Mn647       N802   2.189   1_554  S
Mn647      Cl985   2.542       .  S
C648        N960   1.352       .  A
C648        C702   1.478       .  S
C649        C774   1.468       .  S
N650        N651   1.321       .  A
N650       Mn658   2.204   1_545  S
N651        C659   1.354       .  A
N652        N654   1.316       .  A
N652        N653   1.319       .  A
N652       Mn827   2.194       .  S
N653        C974   1.351       .  A
N654        N969   1.321   1_545  A
N655        N968   1.321       .  A
N655        C660   1.352       .  A
N656        N657   1.318       .  A
N656       Mn827   2.196       .  S
Mn658       N947   2.208       .  S
Mn658      Cl671   2.546       .  S
C659        C738   1.482       .  S
C660        N967   1.351       .  A
C660        C714   1.468       .  S
N661        N976   1.321   1_545  A
N661        N667   1.315       .  A
N661       Mn983   2.204   1_655  S
N662        N975   1.321       .  A
N662        C672   1.354       .  A
N663        N664   1.318       .  A
N663       Mn670   2.191       .  S
N665        N666   1.322       .  A
N666        C673   1.354       .  A
N667        N668   1.319       .  A
N667       Mn670   2.195       .  S
N668        C986   1.352       .  A
Mn669       N975   2.204   1_455  S
Mn670       N809   2.194       .  S
Mn670       N813   2.196       .  S
Cl671      Mn961   2.542       .  S
C672        N982   1.352       .  A
C672        C726   1.476       .  S
C673        C750   1.468       .  S
C674        C777   1.481       .  S
C674        C675   1.411       .  A
C674        C679   1.399       .  A
C675        C762   1.474       .  S
C675        C676   1.400       .  A
C676        C677   1.403       .  A
C676        H681   1.084       .  S
C677        C678   1.415       .  A
C678        C679   1.401       .  A
C679        H680   1.084       .  S
C682        C729   1.480       .  S
C682        C683   1.411       .  A
C682        C687   1.399       .  A
C683        C717   1.473       .  S
C683        C684   1.401       .  A
C684        C685   1.401       .  A
C684        H689   1.084       .  S
C685        C693   1.481       .  S
C685        C686   1.414       .  A
C686        C705   1.480       .  S
C686        C687   1.402       .  A
C687        H688   1.085       .  S
C690        C691   1.400   1_565  A
C690       C1009   1.412       .  A
C691        C692   1.400       .  A
C691        H700   1.084       .  S
C692       C1007   1.414   1_545  A
C692        S696   1.805       .  S
C693       C1006   1.414       .  A
C693        C694   1.402       .  A
C694        C695   1.399       .  A
C694        H701   1.084       .  S
C695       C1004   1.412       .  A
C695        S697   1.805       .  S
S696        H699   1.405       .  S
S697        H698   1.405       .  S
C702       C1017   1.405       .  A
C702        C707   1.415   1_565  A
C703       C1016   1.405       .  A
C703        C704   1.395       .  A
C703        H712   1.084       .  S
C704        C705   1.411       .  A
C704        S708   1.805       .  S
C705       C1020   1.403       .  A
C706       C1019   1.403   1_545  A
C706        C707   1.397       .  A
C706        H713   1.083       .  S
C707        S709   1.800       .  S
S708        H711   1.406       .  S
S709        H710   1.406       .  S
C714        C715   1.401       .  A
C714       C1033   1.412       .  A
C715        C716   1.400       .  A
C715        H724   1.084       .  S
C716        C717   1.414       .  A
C716        S720   1.809       .  S
C717       C1032   1.401       .  A
C718       C1031   1.401   1_545  A
C718        C719   1.396       .  A
C718        H725   1.084       .  S
C719       C1028   1.412       .  A
C719        S721   1.804       .  S
S720        H723   1.402       .  S
S721        H722   1.406       .  S
C726       C1041   1.404       .  A
C726        C731   1.413       .  A
C727       C1040   1.404       .  A
C727        C728   1.397       .  A
C727        H736   1.084       .  S
C728       C1043   1.411   1_545  A
C728        S732   1.805       .  S
C729       C1042   1.411       .  A
C729        C730   1.403       .  A
C730        C731   1.400       .  A
C730        H737   1.082       .  S
C731        S733   1.803       .  S
S732        H735   1.405       .  S
S733        H734   1.407       .  S
C738        C743   1.415       .  A
C739        C740   1.398       .  A
C739        H748   1.084       .  S
C740        S744   1.805       .  S
C741        C742   1.404       .  A
C742        C743   1.399       .  A
C742        H749   1.081       .  S
C743        S745   1.802       .  S
S744        H747   1.404       .  S
S745        H746   1.407       .  S
C750        C755   1.410       .  A
C751        C752   1.397       .  A
C751        H760   1.084       .  S
C752        S756   1.804       .  S
C753        C754   1.402       .  A
C754        C755   1.398       .  A
C754        H761   1.084       .  S
C755        S757   1.801       .  S
S756        H759   1.403       .  S
S757        H758   1.406       .  S
C762        C767   1.413       .  A
C763        C764   1.396       .  A
C763        H772   1.084       .  S
C764        S768   1.803       .  S
C765        C766   1.400   1_455  A
C766        C767   1.398       .  A
C766        H773   1.084       .  S
C767        S769   1.804       .  S
S768        H771   1.407       .  S
S769        H770   1.402       .  S
C774        C779   1.413       .  A
C775        C776   1.403       .  A
C775        H784   1.083       .  S
C776        S780   1.806       .  S
C777        C778   1.401   1_655  A
C778        C779   1.398       .  A
C778        H785   1.084       .  S
C779        S781   1.806       .  S
S780        H783   1.407       .  S
S781        H782   1.404       .  S
N786        N787   1.320   1_455  A
N787        C794   1.352   1_655  A
N788        N790   1.316       .  A
N788        N789   1.320       .  A
N788       Mn804   2.198       .  S
N789       C1109   1.350       .  A
N790       N1105   1.322       .  A
N790      Mn1129   2.208       .  S
N791       N1104   1.322   1_545  A
N791        C795   1.353   1_545  A
N792        N793   1.319       .  A
N792       Mn804   2.192       .  S
C794        C922   1.469       .  S
C795       N1103   1.350       .  A
C795        C847   1.469       .  S
N796        N802   1.315       .  A
N796       N1111   1.320       .  A
N797       N1110   1.320   1_545  A
N797        C805   1.354   1_545  A
N798        N799   1.320       .  A
N800        N801   1.321   1_455  A
N800       Mn826   2.203       .  S
N801        C806   1.352   1_655  A
N802        N803   1.317       .  A
N803       C1119   1.352       .  A
Mn804     Cl1142   2.542       .  S
C805       N1117   1.352       .  A
C805        C859   1.478       .  S
C806        C931   1.468       .  S
N807        N808   1.321       .  A
N807       Mn815   2.204   1_545  S
N808        C816   1.354       .  A
N809        N811   1.316       .  A
N809        N810   1.319       .  A
N810       C1131   1.351       .  A
N811       N1126   1.321   1_545  A
N812       N1125   1.321       .  A
N812        C817   1.352       .  A
N813        N814   1.318       .  A
Mn815      N1104   2.208       .  S
Mn815      Cl828   2.546       .  S
C816        C895   1.482       .  S
C817       N1124   1.351       .  A
C817        C871   1.468       .  S
N818       N1133   1.321   1_545  A
N818        N824   1.315       .  A
N818      Mn1140   2.204   1_655  S
N819       N1132   1.321       .  A
N819        C829   1.354       .  A
N820        N821   1.318       .  A
N820       Mn827   2.191   1_556  S
N822        N823   1.322       .  A
N823        C830   1.354       .  A
N824        N825   1.319       .  A
N824       Mn827   2.195   1_556  S
N825       C1143   1.352       .  A
Mn826      N1132   2.204   1_455  S
Cl828     Mn1118   2.542       .  S
C829       N1139   1.352       .  A
C829        C883   1.476       .  S
C830        C907   1.468       .  S
C831        C934   1.481       .  S
C831        C832   1.411       .  A
C831        C836   1.399       .  A
C832        C919   1.475       .  S
C832        C833   1.400       .  A
C833        C834   1.403       .  A
C833        H838   1.084       .  S
C834        C835   1.415       .  A
C835        C836   1.401       .  A
C836        H837   1.084       .  S
C839        C886   1.480       .  S
C839        C840   1.411       .  A
C839        C844   1.399       .  A
C840        C874   1.473       .  S
C840        C841   1.401       .  A
C841        C842   1.401       .  A
C841        H846   1.084       .  S
C842        C850   1.481       .  S
C842        C843   1.414       .  A
C843        C862   1.480       .  S
C843        C844   1.402       .  A
C844        H845   1.085       .  S
C847        C848   1.400   1_565  A
C847       C1166   1.412       .  A
C848        C849   1.400       .  A
C848        H857   1.084       .  S
C849       C1164   1.414   1_545  A
C849        S853   1.805       .  S
C850       C1163   1.414       .  A
C850        C851   1.402       .  A
C851        C852   1.399       .  A
C851        H858   1.084       .  S
C852       C1161   1.412       .  A
C852        S854   1.805       .  S
S853        H856   1.405       .  S
S854        H855   1.405       .  S
C859       C1174   1.405       .  A
C859        C864   1.414   1_565  A
C860       C1173   1.405       .  A
C860        C861   1.395       .  A
C860        H869   1.084       .  S
C861        C862   1.411       .  A
C861        S865   1.805       .  S
C862       C1177   1.403       .  A
C863       C1176   1.403   1_545  A
C863        C864   1.397       .  A
C863        H870   1.083       .  S
C864        S866   1.800       .  S
S865        H868   1.406       .  S
S866        H867   1.406       .  S
C871        C872   1.401       .  A
C871       C1190   1.412       .  A
C872        C873   1.400       .  A
C872        H881   1.084       .  S
C873        C874   1.414       .  A
C873        S877   1.809       .  S
C874       C1189   1.401       .  A
C875       C1188   1.401   1_545  A
C875        C876   1.396       .  A
C875        H882   1.084       .  S
C876       C1185   1.412       .  A
C876        S878   1.804       .  S
S877        H880   1.402       .  S
S878        H879   1.406       .  S
C883       C1198   1.404       .  A
C883        C888   1.413       .  A
C884       C1197   1.404       .  A
C884        C885   1.397       .  A
C884        H893   1.084       .  S
C885       C1200   1.411   1_545  A
C885        S889   1.805       .  S
C886       C1199   1.411       .  A
C886        C887   1.403       .  A
C887        C888   1.400       .  A
C887        H894   1.082       .  S
C888        S890   1.803       .  S
S889        H892   1.405       .  S
S890        H891   1.407       .  S
C895        C900   1.415       .  A
C896        C897   1.398       .  A
C896        H905   1.084       .  S
C897        S901   1.805       .  S
C898        C899   1.404       .  A
C899        C900   1.399       .  A
C899        H906   1.081       .  S
C900        S902   1.802       .  S
S901        H904   1.404       .  S
S902        H903   1.407       .  S
C907        C912   1.410       .  A
C908        C909   1.397       .  A
C908        H917   1.084       .  S
C909        S913   1.804       .  S
C910        C911   1.402       .  A
C911        C912   1.398       .  A
C911        H918   1.084       .  S
C912        S914   1.801       .  S
S913        H916   1.403       .  S
S914        H915   1.406       .  S
C919        C924   1.413       .  A
C920        C921   1.396       .  A
C920        H929   1.084       .  S
C921        S925   1.803       .  S
C922        C923   1.400   1_455  A
C923        C924   1.398       .  A
C923        H930   1.084       .  S
C924        S926   1.804       .  S
S925        H928   1.407       .  S
S926        H927   1.402       .  S
C931        C936   1.412       .  A
C932        C933   1.403       .  A
C932        H941   1.083       .  S
C933        S937   1.806       .  S
C934        C935   1.402   1_655  A
C935        C936   1.398       .  A
C935        H942   1.084       .  S
C936        S938   1.806       .  S
S937        H940   1.407       .  S
S938        H939   1.405       .  S
N943        N944   1.320   1_455  A
N944        C951   1.352   1_655  A
N945        N947   1.316       .  A
N945        N946   1.320       .  A
N945       Mn961   2.198       .  S
N948        C952   1.353       .  A
N949        N950   1.319       .  A
N949       Mn961   2.192       .  S
C951       C1079   1.469       .  S
C952       C1004   1.469       .  S
N953        N959   1.315       .  A
N954        C962   1.354       .  A
N955        N956   1.320       .  A
N955      Mn1118   2.202       .  S
N957        N958   1.321   1_455  A
N957       Mn983   2.204   1_565  S
N958        C963   1.352   1_655  A
N959        N960   1.317       .  A
N959      Mn1118   2.189       .  S
Mn961      N1112   2.202   1_554  S
Mn961      N1116   2.189   1_554  S
C962       C1016   1.478       .  S
C963       C1088   1.468       .  S
N964        N965   1.321       .  A
N964       Mn972   2.204       .  S
N965        C973   1.354       .  A
N966        N968   1.316       .  A
N966        N967   1.319       .  A
N966      Mn1141   2.194       .  S
N969        C974   1.352   1_565  A
N970        N971   1.318       .  A
N970      Mn1141   2.196       .  S
Mn972      Cl985   2.546       .  S
C973       C1052   1.482       .  S
C974       C1028   1.468       .  S
N975        N981   1.315       .  A
N976        C986   1.354   1_565  A
N977        N978   1.318       .  A
N977       Mn984   2.191       .  S
N979        N980   1.322       .  A
N980        C987   1.354       .  A
N981        N982   1.319       .  A
N981       Mn984   2.195       .  S
Mn984      N1123   2.194       .  S
Mn984      N1127   2.196       .  S
C986       C1040   1.476       .  S
C987       C1064   1.468       .  S
C988       C1091   1.481       .  S
C988        C989   1.411       .  A
C988        C993   1.399       .  A
C989       C1076   1.474       .  S
C989        C990   1.400       .  A
C990        C991   1.403       .  A
C990        H995   1.084       .  S
C991        C992   1.415       .  A
C992        C993   1.401       .  A
C993        H994   1.084       .  S
C996       C1043   1.480       .  S
C996        C997   1.411       .  A
C996       C1001   1.399       .  A
C997       C1031   1.473       .  S
C997        C998   1.401       .  A
C998        C999   1.401       .  A
C998       H1003   1.084       .  S
C999       C1007   1.481       .  S
C999       C1000   1.414       .  A
C1000      C1019   1.480       .  S
C1000      C1001   1.402       .  A
C1001      H1002   1.085       .  S
C1004      C1005   1.400       .  A
C1005      C1006   1.400       .  A
C1005      H1014   1.084       .  S
C1006      S1010   1.805       .  S
C1007      C1008   1.402       .  A
C1008      C1009   1.399       .  A
C1008      H1015   1.084       .  S
C1009      S1011   1.805       .  S
S1010      H1013   1.405       .  S
S1011      H1012   1.405       .  S
C1016      C1021   1.415       .  A
C1017      C1018   1.395       .  A
C1017      H1026   1.084       .  S
C1018      C1019   1.411       .  A
C1018      S1022   1.805       .  S
C1020      C1021   1.397       .  A
C1020      H1027   1.083       .  S
C1021      S1023   1.800       .  S
S1022      H1025   1.406       .  S
S1023      H1024   1.406       .  S
C1028      C1029   1.401   1_545  A
C1029      C1030   1.400       .  A
C1029      H1038   1.084       .  S
C1030      C1031   1.414       .  A
C1030      S1034   1.809       .  S
C1032      C1033   1.396       .  A
C1032      H1039   1.084       .  S
C1033      S1035   1.804       .  S
S1034      H1037   1.402       .  S
S1035      H1036   1.406       .  S
C1040      C1045   1.413   1_545  A
C1041      C1042   1.397       .  A
C1041      H1050   1.084       .  S
C1042      S1046   1.805       .  S
C1043      C1044   1.403       .  A
C1044      C1045   1.400       .  A
C1044      H1051   1.082       .  S
C1045      S1047   1.803       .  S
S1046      H1049   1.405       .  S
S1047      H1048   1.407       .  S
C1052      C1057   1.415       .  A
C1053      C1054   1.398       .  A
C1053      H1062   1.084       .  S
C1054      S1058   1.805       .  S
C1055      C1056   1.404       .  A
C1056      C1057   1.399       .  A
C1056      H1063   1.081       .  S
C1057      S1059   1.802       .  S
S1058      H1061   1.404       .  S
S1059      H1060   1.407       .  S
C1064      C1069   1.410       .  A
C1065      C1066   1.397       .  A
C1065      H1074   1.084       .  S
C1066      S1070   1.804       .  S
C1067      C1068   1.402       .  A
C1068      C1069   1.398       .  A
C1068      H1075   1.084       .  S
C1069      S1071   1.801       .  S
S1070      H1073   1.403       .  S
S1071      H1072   1.406       .  S
C1076      C1081   1.413       .  A
C1077      C1078   1.396       .  A
C1077      H1086   1.084       .  S
C1078      S1082   1.803       .  S
C1079      C1080   1.400   1_455  A
C1080      C1081   1.398       .  A
C1080      H1087   1.084       .  S
C1081      S1083   1.804       .  S
S1082      H1085   1.407       .  S
S1083      H1084   1.402       .  S
C1088      C1093   1.413       .  A
C1089      C1090   1.403       .  A
C1089      H1098   1.083       .  S
C1090      S1094   1.806       .  S
C1091      C1092   1.401   1_655  A
C1092      C1093   1.398       .  A
C1092      H1099   1.084       .  S
C1093      S1095   1.806       .  S
S1094      H1097   1.407       .  S
S1095      H1096   1.405       .  S
N1100      N1101   1.320   1_455  A
N1101      C1108   1.352   1_655  A
N1102      N1104   1.316       .  A
N1102      N1103   1.320       .  A
N1102     Mn1118   2.198       .  S
N1105      C1109   1.353       .  A
N1106      N1107   1.319       .  A
N1106     Mn1118   2.192       .  S
C1108      C1236   1.469       .  S
C1109      C1161   1.469       .  S
N1110      N1116   1.315       .  A
N1111      C1119   1.354       .  A
N1112      N1113   1.320       .  A
N1114      N1115   1.321   1_455  A
N1114     Mn1140   2.203   1_565  S
N1115      C1120   1.352   1_655  A
N1116      N1117   1.317       .  A
C1119      C1173   1.478       .  S
C1120      C1245   1.468       .  S
N1121      N1122   1.321       .  A
N1121     Mn1129   2.204       .  S
N1122      C1130   1.354       .  A
N1123      N1125   1.316       .  A
N1123      N1124   1.319       .  A
N1126      C1131   1.352   1_565  A
N1127      N1128   1.318       .  A
Mn1129    Cl1142   2.546       .  S
C1130      C1209   1.482       .  S
C1131      C1185   1.468       .  S
N1132      N1138   1.315       .  A
N1133      C1143   1.354   1_565  A
N1134      N1135   1.318       .  A
N1134     Mn1141   2.191   1_556  S
N1136      N1137   1.322       .  A
N1137      C1144   1.354       .  A
N1138      N1139   1.319       .  A
N1138     Mn1141   2.195   1_556  S
C1143      C1197   1.476       .  S
C1144      C1221   1.468       .  S
C1145      C1248   1.481       .  S
C1145      C1146   1.411       .  A
C1145      C1150   1.399       .  A
C1146      C1233   1.475       .  S
C1146      C1147   1.400       .  A
C1147      C1148   1.403       .  A
C1147      H1152   1.084       .  S
C1148      C1149   1.415       .  A
C1149      C1150   1.401       .  A
C1150      H1151   1.084       .  S
C1153      C1200   1.480       .  S
C1153      C1154   1.411       .  A
C1153      C1158   1.399       .  A
C1154      C1188   1.473       .  S
C1154      C1155   1.401       .  A
C1155      C1156   1.401       .  A
C1155      H1160   1.084       .  S
C1156      C1164   1.481       .  S
C1156      C1157   1.414       .  A
C1157      C1176   1.480       .  S
C1157      C1158   1.402       .  A
C1158      H1159   1.085       .  S
C1161      C1162   1.400       .  A
C1162      C1163   1.400       .  A
C1162      H1171   1.084       .  S
C1163      S1167   1.805       .  S
C1164      C1165   1.402       .  A
C1165      C1166   1.399       .  A
C1165      H1172   1.084       .  S
C1166      S1168   1.805       .  S
S1167      H1170   1.405       .  S
S1168      H1169   1.405       .  S
C1173      C1178   1.415       .  A
C1174      C1175   1.395       .  A
C1174      H1183   1.084       .  S
C1175      C1176   1.411       .  A
C1175      S1179   1.805       .  S
C1177      C1178   1.397       .  A
C1177      H1184   1.083       .  S
C1178      S1180   1.800       .  S
S1179      H1182   1.406       .  S
S1180      H1181   1.406       .  S
C1185      C1186   1.401   1_545  A
C1186      C1187   1.400       .  A
C1186      H1195   1.084       .  S
C1187      C1188   1.414       .  A
C1187      S1191   1.809       .  S
C1189      C1190   1.396       .  A
C1189      H1196   1.084       .  S
C1190      S1192   1.804       .  S
S1191      H1194   1.402       .  S
S1192      H1193   1.406       .  S
C1197      C1202   1.413   1_545  A
C1198      C1199   1.397       .  A
C1198      H1207   1.084       .  S
C1199      S1203   1.805       .  S
C1200      C1201   1.403       .  A
C1201      C1202   1.400       .  A
C1201      H1208   1.082       .  S
C1202      S1204   1.803       .  S
S1203      H1206   1.405       .  S
S1204      H1205   1.407       .  S
C1209      C1214   1.415       .  A
C1210      C1211   1.398       .  A
C1210      H1219   1.084       .  S
C1211      S1215   1.805       .  S
C1212      C1213   1.404       .  A
C1213      C1214   1.399       .  A
C1213      H1220   1.081       .  S
C1214      S1216   1.802       .  S
S1215      H1218   1.404       .  S
S1216      H1217   1.407       .  S
C1221      C1226   1.410       .  A
C1222      C1223   1.397       .  A
C1222      H1231   1.084       .  S
C1223      S1227   1.804       .  S
C1224      C1225   1.402       .  A
C1225      C1226   1.398       .  A
C1225      H1232   1.084       .  S
C1226      S1228   1.801       .  S
S1227      H1230   1.403       .  S
S1228      H1229   1.406       .  S
C1233      C1238   1.413       .  A
C1234      C1235   1.396       .  A
C1234      H1243   1.084       .  S
C1235      S1239   1.803       .  S
C1236      C1237   1.400   1_455  A
C1237      C1238   1.398       .  A
C1237      H1244   1.084       .  S
C1238      S1240   1.804       .  S
S1239      H1242   1.407       .  S
S1240      H1241   1.402       .  S
C1245      C1250   1.412       .  A
C1246      C1247   1.403       .  A
C1246      H1255   1.083       .  S
C1247      S1251   1.806       .  S
C1248      C1249   1.402   1_655  A
C1249      C1250   1.398       .  A
C1249      H1256   1.084       .  S
C1250      S1252   1.806       .  S
S1251      H1254   1.407       .  S
S1252      H1253   1.405       .  S
