geometry optimzed in LAMMPS
_audit_creation_date              2020-12-01 
_audit_creation_method            'lammps2cif' 
_symmetry_space_group_name_H-M    'P1' 
_symmetry_Int_Tables_number       1 
_symmetry_cell_setting            triclinic 
loop_ 
_symmetry_equiv_pos_as_xyz 
  x,y,z 
_cell_length_a                    23.09005837 
_cell_length_b                    23.090772353748314 
_cell_length_c                    56.91739202138027 
_cell_angle_alpha                 90.10047539425453 
_cell_angle_beta                  89.90672647065179 
_cell_angle_gamma                 120.34705274062523 
loop_ 
_atom_site_label 
_atom_site_type_symbol 
_atom_site_fract_x 
_atom_site_fract_y 
_atom_site_fract_z 
_atom_site_charge 
C1          C  0.33298341  0.16716417  0.57417566     0.45900
H2          H  0.33279685  0.16715967  0.59375656    -0.03100
C3          C  0.33340363  0.16708577  0.52866588     0.46000
H4          H  0.33360026  0.16705268  0.50916063    -0.03100
C5          C  0.40286409  0.20355034  0.56404357    -0.16800
C6          C  0.29939607  0.09738265  0.56397409    -0.16500
C7          C  0.29702947  0.20050219  0.56394512    -0.16900
C8          C  0.40593856  0.20409266  0.54007956    -0.16900
C9          C  0.29740537  0.09446084  0.54000245    -0.16500
C10         C  0.29661768  0.20271105  0.53998267    -0.16800
C11         C  0.16725474  0.33334089  0.51954339     0.45900
H12         H  0.16732147  0.33362753  0.53905000    -0.03100
C13         C  0.16706283  0.33267572  0.47399160     0.46000
H14         H  0.16696580  0.33239131  0.45439059    -0.03100
C15         C  0.09456494  0.29667276  0.50825361    -0.16800
C16         C  0.20357739  0.40582845  0.50809501    -0.16500
C17         C  0.20343530  0.29710843  0.50822572    -0.16900
C18         C  0.09733557  0.29760443  0.48429642    -0.16900
C19         C  0.20197743  0.40261411  0.48413063    -0.16500
C20         C  0.20198468  0.29830444  0.48427222    -0.16800
Zn21       Zn  0.16725728  0.33408937  0.66056696     1.49700
Zn22       Zn  0.07463417  0.28428783  0.69864555     1.49400
Zn23       Zn  0.21636982  0.29099082  0.69860024     1.49100
Zn24       Zn  0.21072207  0.42647839  0.69875577     1.49500
O25         O  0.16725400  0.33391958  0.69245482    -1.83700
O26         O  0.09817241  0.24664487  0.64893540    -0.74300
O27         O  0.05872152  0.20750897  0.71908986    -0.74100
O28         O  0.23819153  0.26172156  0.66713783    -0.73600
O29         O  0.02315879  0.26232572  0.66727128    -0.74300
O30         O  0.25463141  0.35296704  0.64897934    -0.73900
O31         O  0.16070018  0.21935519  0.72167440    -0.74500
O32         O  0.28179800  0.44251873  0.72194758    -0.73900
O33         O  0.05858580  0.33950248  0.72174535    -0.74600
O34         O  0.29324131  0.35229734  0.71910514    -0.74000
O35         O  0.14944771  0.44173915  0.71922936    -0.74500
O36         O  0.24057298  0.47818800  0.66737739    -0.74400
O37         O  0.14883883  0.40287132  0.64931451    -0.74200
C38         C  0.04304977  0.24566099  0.64881169     0.77600
C39         C  0.10139335  0.19691449  0.72952678     0.78100
C40         C  0.25515038  0.29859428  0.64874442     0.77100
C41         C  0.30377103  0.40549017  0.72972800     0.77400
C42         C  0.09566090  0.39884299  0.72961432     0.78600
C43         C  0.20338604  0.45814047  0.64905109     0.77600
C44         C  0.99925222  0.99985322  0.80724441     0.45900
H45         H  0.99899533  0.99965535  0.78764594    -0.03100
C46         C  0.99986255  0.00032271  0.85279276     0.46000
H47         H  0.00012187  0.00053033  0.87229825    -0.03100
C48         C  0.42961459  0.46403983  0.81763240    -0.16800
C49         C  0.03496882  0.46608054  0.81740422    -0.16500
C50         C  0.03358628  0.06976691  0.81742542    -0.16900
C51         C  0.42707242  0.46315552  0.84159641    -0.16900
C52         C  0.03647910  0.46465438  0.84135943    -0.16500
C53         C  0.03554970  0.07286198  0.84138966    -0.16800
C54         C  0.16608106  0.33411921  0.86199450     0.45900
H55         H  0.16654856  0.33406657  0.84248928    -0.03100
C56         C  0.16501718  0.33423904  0.90753516     0.46000
H57         H  0.16458752  0.33430902  0.92713489    -0.03100
C58         C  0.13071054  0.37133909  0.87317349    -0.16800
C59         C  0.12835375  0.26148614  0.87332539    -0.16500
C60         C  0.23846839  0.36955866  0.87353038    -0.16900
C61         C  0.13204578  0.37037699  0.89713090    -0.16900
C62         C  0.12874055  0.26443469  0.89728575    -0.16500
C63         C  0.23502595  0.36779889  0.89749303    -0.16800
C64         C  0.33565317  0.16853629  0.14058225     0.45900
H65         H  0.33601668  0.16858354  0.12099971    -0.03100
C66         C  0.33473939  0.16829196  0.18609785     0.46000
H67         H  0.33433788  0.16821076  0.20560383    -0.03100
C68         C  0.26565601  0.13458969  0.15062160    -0.16800
C69         C  0.36897510  0.13261587  0.15086303    -0.16500
C70         C  0.37167838  0.23828657  0.15084004    -0.16900
C71         C  0.26231316  0.13233494  0.17459273    -0.16900
C72         C  0.37066094  0.13174171  0.17482670    -0.16500
C73         C  0.37184426  0.24100004  0.17481474    -0.16800
C74         C  0.00093897  0.50200056  0.19528156     0.45900
H75         H  0.00078608  0.50166390  0.17577542    -0.03100
C76         C  0.00131826  0.50272793  0.24080239     0.46000
H77         H  0.00149499  0.00302627  0.26038958    -0.03100
C78         C  0.46455249  0.03797598  0.20662193    -0.16800
C79         C  0.46491413  0.42953986  0.20675391    -0.16500
C80         C  0.07372118  0.03896098  0.20653418    -0.16900
C81         C  0.46556125  0.03623892  0.23058244    -0.16900
C82         C  0.46715307  0.43277778  0.23072516    -0.16500
C83         C  0.07108064  0.03859421  0.23050877    -0.16800
Zn84       Zn  0.38004186  0.12111313  0.36534213     1.49700
Zn85       Zn  0.33438600  0.16769052  0.32752611     1.49400
Zn86       Zn  0.24112791  0.12042002  0.36538475     1.49100
Zn87       Zn  0.38059155  0.26011117  0.36552321     1.49500
O88         O  0.33394009  0.16731562  0.35939386    -1.83700
O89         O  0.40300116  0.09313716  0.33384167    -0.74300
O90         O  0.26478393  0.08067348  0.31579617    -0.74100
O91         O  0.22350047  0.04461667  0.38681107    -0.73600
O92         O  0.42157433  0.18566526  0.31610921    -0.74300
O93         O  0.32168416  0.04747104  0.38731611    -0.73900
O94         O  0.19036032  0.09798291  0.33379306    -0.74500
O95         O  0.32208775  0.27700904  0.38694624    -0.73900
O96         O  0.31725282  0.23711017  0.31601022    -0.74600
O97         O  0.22616309  0.17837768  0.38753148    -0.74000
O98         O  0.40936673  0.31176616  0.33406994    -0.74500
O99         O  0.45350508  0.27513379  0.38772233    -0.74400
O100        O  0.45572713  0.17950100  0.38680852    -0.75100
C101        C  0.42139421  0.13095478  0.31568527     0.77600
C102        C  0.21009394  0.08055158  0.31547365     0.78100
C103        C  0.26407767  0.02901433  0.39608719     0.77100
C104        C  0.26566457  0.23606036  0.39629411     0.77400
C105        C  0.37191528  0.29227531  0.31580446     0.78600
C106        C  0.47144860  0.23564928  0.39632673     0.77600
Zn107      Zn  0.00108158  0.00181128  0.05409225     1.49700
Zn108      Zn  0.45804123  0.05114172  0.01618169     1.49400
Zn109      Zn  0.09310364  0.04447430  0.01585137     1.49100
Zn110      Zn  0.45027491  0.40898030  0.01602768     1.49500
O111        O  0.00058189  0.00155731  0.02220422    -1.83700
O112        O  0.51993996  0.08922339  0.06564324    -0.74300
O113        O  0.02010438  0.12890018  0.99616164    -0.74100
O114        O  0.14515093  0.07495249  0.04717624    -0.73600
O115        O  0.42834733  0.07235494  0.04764505    -0.74300
O116        O  0.06996044  0.98360116  0.06543644    -0.73900
O117        O  0.10887616  0.11528575  0.99255970    -0.74500
O118        O  0.00491797  0.39320121  0.99255676    -0.73900
O119        O  0.38669160  0.49603191  0.99294794    -0.74600
O120        O  0.10809856  0.48242466  0.99565264    -0.74000
O121        O  0.37244544  0.39318957  0.99605928    -0.74500
O122        O  0.42961650  0.35779084  0.04749401    -0.74400
O123        O  0.41380109  0.43274819  0.06579703    -0.74200
C124        C  0.46551519  0.08963043  0.06596293     0.77600
C125        C  0.07258297  0.13862367  0.98522167     0.78100
C126        C  0.12532927  0.03805194  0.06556971     0.77100
C127        C  0.06468125  0.42953634  0.98494577     0.77400
C128        C  0.36271661  0.43618772  0.98542117     0.78600
C129        C  0.41315830  0.37779865  0.06597950     0.77600
C130        C  0.12813849  0.11149270  0.26401401    -0.12900
C131        C  0.12672948  0.06589749  0.24735934     0.09300
C132        C  0.15626350  0.02748601  0.25279559    -0.12900
C133        C  0.18225745  0.03101654  0.27525448    -0.12900
C134        C  0.17758851  0.07192767  0.29260907     0.09300
C135        C  0.15230660  0.11370668  0.28658675    -0.12900
H136        H  0.10445295  0.14065897  0.26023018     0.13300
H137        H  0.15386308  0.99063833  0.24041841     0.13300
H138        H  0.20397440  0.00018669  0.27933225     0.13300
H139        H  0.15124361  0.14806437  0.29932986     0.13300
C140        C  0.48427986  0.37694217  0.26417448    -0.12900
C141        C  0.43930054  0.37755453  0.24775240     0.09300
C142        C  0.37114814  0.34730569  0.25349866    -0.12900
C143        C  0.34917402  0.32088932  0.27597257    -0.12900
C144        C  0.39545280  0.32587289  0.29305981     0.09300
C145        C  0.46281357  0.35233597  0.28677059    -0.12900
H146        H  0.03730041  0.40122142  0.26016182     0.13300
H147        H  0.33610756  0.34916694  0.24132477     0.13300
H148        H  0.29640515  0.29836894  0.28025627     0.13300
H149        H  0.49880086  0.35377850  0.29929619     0.13300
C150        C  0.38896614  0.04038142  0.28648770    -0.12900
C151        C  0.43084495  0.10764396  0.29283503     0.09300
C152        C  0.47265948  0.15403092  0.27577124    -0.12900
C153        C  0.47681003  0.13217906  0.25325832    -0.12900
C154        C  0.43809312  0.06407070  0.24747605     0.09300
C155        C  0.39179395  0.01904903  0.26385142    -0.12900
H156        H  0.35399259  0.00435387  0.29901231     0.13300
H157        H  0.50363112  0.20673495  0.28011464     0.13300
H158        H  0.01423275  0.16721534  0.24109987     0.13300
H159        H  0.36237047  0.46604596  0.25977833     0.13300
C160        C  0.44395601  0.29456373  0.11709465    -0.12900
C161        C  0.39915281  0.29387430  0.13395418     0.09300
C162        C  0.36147750  0.32435727  0.12876941    -0.12900
C163        C  0.36485477  0.35056643  0.10636426    -0.12900
C164        C  0.40485730  0.34519186  0.08880730     0.09300
C165        C  0.44597925  0.31894891  0.09456975    -0.12900
H166        H  0.47254771  0.27015132  0.12068564     0.13300
H167        H  0.32522922  0.32254205  0.14129975     0.13300
H168        H  0.33455121  0.37299796  0.10248460     0.13300
H169        H  0.97964763  0.31728671  0.08166310     0.13300
C170        C  0.21055770  0.15160024  0.11690292    -0.12900
C171        C  0.21050948  0.10679274  0.13355839     0.09300
C172        C  0.17953477  0.03842671  0.12807604    -0.12900
C173        C  0.15309293  0.01600674  0.10563424    -0.12900
C174        C  0.15877370  0.06202131  0.08831850     0.09300
C175        C  0.18593597  0.12965834  0.09433753    -0.12900
H176        H  0.23542101  0.20477770  0.12071337     0.13300
H177        H  0.18088211  0.00348988  0.14043044     0.13300
H178        H  0.13006054  0.46308056  0.10155325     0.13300
H179        H  0.18794899  0.16549412  0.08162326     0.13300
C180        C  0.37412473  0.05712204  0.09482421    -0.12900
C181        C  0.44171433  0.09852681  0.08880032     0.09300
C182        C  0.48774600  0.13941265  0.10611828    -0.12900
C183        C  0.46528730  0.14326483  0.12855930    -0.12900
C184        C  0.39690320  0.10511318  0.13401279     0.09300
C185        C  0.35216759  0.05957207  0.11739096    -0.12900
H186        H  0.33831197  0.02285008  0.08209456     0.13300
H187        H  0.54066233  0.16998801  0.10202088     0.13300
H188        H  0.50014813  0.18011134  0.14090940     0.13300
H189        H  0.29897692  0.03065929  0.12119517     0.13300
C190        C  0.40309415  0.09901669  0.18693316    -0.12800
C191        C  0.43174578  0.07041062  0.19456957    -0.14400
C192        C  0.13914389  0.07128699  0.19434746    -0.12800
C193        C  0.19659967  0.09973623  0.18659099    -0.14400
C194        C  0.40403794  0.30643581  0.18698008    -0.12800
C195        C  0.43238036  0.36388413  0.19473211    -0.14400
C196        C  0.31041870  0.45671503  0.92449493    -0.12900
C197        C  0.28999564  0.39379902  0.91457747     0.09300
C198        C  0.29648065  0.34612430  0.92769263    -0.12900
C199        C  0.31675218  0.35851809  0.95111011    -0.12900
C200        C  0.33234026  0.41968069  0.96175728     0.09300
C201        C  0.33107625  0.46954916  0.94792014    -0.12900
H202        H  0.30530558  0.49397353  0.91467218     0.13300
H203        H  0.28048370  0.29709773  0.92037048     0.13300
H204        H  0.31981277  0.31994660  0.96087673     0.13300
H205        H  0.34548795  0.51834362  0.95521622     0.13300
C206        C  0.14238589  0.18878116  0.92372818    -0.12900
C207        C  0.09965720  0.20908658  0.91420545     0.09300
C208        C  0.04591510  0.20256752  0.92769761    -0.12900
C209        C  0.03916639  0.18303267  0.95115561    -0.12900
C210        C  0.08534632  0.16804890  0.96144517     0.09300
C211        C  0.13568867  0.16884875  0.94720394    -0.12900
H212        H  0.18434666  0.19376715  0.91357523     0.13300
H213        H  0.01261858  0.21831957  0.92065709     0.13300
H214        H  0.99798811  0.18016967  0.96124061     0.13300
H215        H  0.17036788  0.15472696  0.95422598     0.13300
C216        C  0.15358102  0.45471082  0.92693523    -0.12900
C217        C  0.10589285  0.39974947  0.91390610     0.09300
C218        C  0.04301525  0.35676607  0.92385762    -0.12900
C219        C  0.03051909  0.36447071  0.94733233    -0.12900
C220        C  0.08063629  0.41609249  0.96114186     0.09300
C221        C  0.14151990  0.46249789  0.95039800    -0.12900
H222        H  0.20251848  0.48822851  0.91954704     0.13300
H223        H  0.00567801  0.31390907  0.91405330     0.13300
H224        H  0.98187111  0.32952492  0.95470199     0.13300
H225        H  0.18019244  0.50461711  0.96013719     0.13300
C226        C  0.06965480  0.43252826  0.85334731    -0.12800
C227        C  0.09843306  0.40408895  0.86100452    -0.14400
C228        C  0.09600752  0.19592402  0.86122292    -0.12800
C229        C  0.06778411  0.13847606  0.85345578    -0.14400
C230        C  0.30423040  0.40184127  0.86157049    -0.12800
C231        C  0.36168131  0.43037245  0.85380723    -0.14400
C232        C  0.33411297  0.46990401  0.76749138    -0.12900
C233        C  0.33257696  0.41856846  0.75361704     0.09300
C234        C  0.34650803  0.37215160  0.76433204    -0.12900
C235        C  0.36620669  0.37984472  0.78779557    -0.12900
C236        C  0.37388918  0.43472069  0.80085772     0.09300
C237        C  0.35427125  0.47758310  0.79096417    -0.12900
H238        H  0.32063702  0.50474279  0.76015986     0.13300
H239        H  0.34290632  0.33018052  0.75455393     0.13300
H240        H  0.38132894  0.34638177  0.79514882     0.13300
H241        H  0.35977849  0.02010190  0.80084681     0.13300
C242        C  0.02458415  0.15251191  0.76410587    -0.12900
C243        C  0.08535368  0.16736289  0.75331237     0.09300
C244        C  0.13530459  0.16595189  0.76705605    -0.12900
C245        C  0.12266718  0.14529863  0.79048446    -0.12900
C246        C  0.05988440  0.12509331  0.80048301     0.09300
C247        C  0.01238822  0.13224571  0.78752142    -0.12900
H248        H  0.98605489  0.15588769  0.75442885     0.13300
H249        H  0.18391302  0.18002650  0.75966562     0.13300
H250        H  0.15986153  0.13985798  0.80021705     0.13300
H251        H  0.46352028  0.11655468  0.79493226     0.13300
C252        C  0.02953142  0.36466008  0.76700995    -0.12900
C253        C  0.08170477  0.41471923  0.75335766     0.09300
C254        C  0.12791853  0.47548717  0.76421244    -0.12900
C255        C  0.11940713  0.48755804  0.78760153    -0.12900
C256        C  0.06401161  0.43994523  0.80046466     0.09300
C257        C  0.02104459  0.37719385  0.79040716    -0.12900
H258        H  0.99472896  0.31606129  0.75956924     0.13300
H259        H  0.17041788  0.51409754  0.75460631     0.13300
H260        H  0.15278222  0.03658855  0.79500480     0.13300
H261        H  0.47782746  0.33992104  0.80006978     0.13300
C262        C  0.28921933  0.31657744  0.45600078    -0.12900
C263        C  0.22974009  0.27073240  0.46740592     0.09300
C264        C  0.18383892  0.21181458  0.45574308    -0.12900
C265        C  0.19368659  0.20219699  0.43220748    -0.12900
C266        C  0.25062172  0.25093435  0.42002435     0.09300
C267        C  0.29942454  0.30722856  0.43245613    -0.12900
H268        H  0.32526579  0.36230845  0.46478297     0.13300
H269        H  0.13767407  0.17584292  0.46430804     0.13300
H270        H  0.15641798  0.15671274  0.42355132     0.13300
H271        H  0.34539836  0.34428972  0.42400035     0.13300
C272        C  0.02839441  0.21103524  0.45573095    -0.12900
C273        C  0.04181752  0.26987544  0.46744531     0.09300
C274        C  0.02866680  0.31568830  0.45608380    -0.12900
C275        C  0.00931483  0.30647109  0.43254167    -0.12900
C276        C  0.50133808  0.25023708  0.42005748     0.09300
C277        C  0.50895543  0.20146030  0.43218734    -0.12900
H278        H  0.03818386  0.17506210  0.46427081     0.13300
H279        H  0.03869824  0.36136335  0.46489019     0.13300
H280        H  0.00098682  0.34365823  0.42412005     0.13300
H281        H  0.50022947  0.15598593  0.42349558     0.13300
C282        C  0.18359980  0.47112165  0.45580446    -0.12900
C283        C  0.22938893  0.45778045  0.46712406     0.09300
C284        C  0.28797370  0.47084666  0.45532848    -0.12900
C285        C  0.29746843  0.49039395  0.43181089    -0.12900
C286        C  0.24898679  0.99864570  0.41975389     0.09300
C287        C  0.19285579  0.99079138  0.43226076    -0.12900
H288        H  0.13806185  0.46129329  0.46466200     0.13300
H289        H  0.32382843  0.46073299  0.46378727     0.13300
H290        H  0.34276235  0.49875135  0.42308115     0.13300
H291        H  0.15592975  0.99959945  0.42388135     0.13300
C292        C  0.30665987  0.29698558  0.58592125    -0.12900
C293        C  0.26944862  0.22830538  0.58083655     0.09300
C294        C  0.22502112  0.18380167  0.59775384    -0.12900
C295        C  0.22303024  0.20638597  0.62025622    -0.12900
C296        C  0.26364310  0.27435625  0.62592306     0.09300
C297        C  0.30317560  0.32004491  0.60830084    -0.12900
H298        H  0.34261327  0.33174556  0.57333248     0.13300
H299        H  0.19678443  0.13042157  0.59422765     0.13300
H300        H  0.18973141  0.17073908  0.63321687     0.13300
H301        H  0.33305504  0.37320677  0.61211010     0.13300
C302        C  0.48981277  0.19440543  0.58597944    -0.12900
C303        C  0.45820813  0.23114697  0.58101476     0.09300
C304        C  0.45790099  0.27504314  0.59804505    -0.12900
C305        C  0.48250142  0.27704915  0.62051556    -0.12900
C306        C  0.01007757  0.23696062  0.62604751     0.09300
C307        C  0.01634254  0.19788007  0.60833348    -0.12900
H308        H  0.48875518  0.15882622  0.57330567     0.13300
H309        H  0.43259440  0.30286681  0.59461736     0.13300
H310        H  0.48005005  0.30998897  0.63355126     0.13300
H311        H  0.03976325  0.16838930  0.61204285     0.13300
C312        C  0.20338258  0.01076951  0.58636871    -0.12900
C313        C  0.27177659  0.04199439  0.58091866     0.09300
C314        C  0.31668025  0.04240977  0.59761737    -0.12900
C315        C  0.29483703  0.01826541  0.62022791    -0.12900
C316        C  0.22718692  0.49105103  0.62622441     0.09300
C317        C  0.18105313  0.98472124  0.60885334    -0.12900
H318        H  0.16836444  0.01179945  0.57397077     0.13300
H319        H  0.36988415  0.06747406  0.59382488     0.13300
H320        H  0.33077391  0.52074507  0.63298116     0.13300
H321        H  0.12809441  0.96156196  0.61292357     0.13300
C322        C  0.26427333  0.23551902  0.52790433    -0.12800
C323        C  0.23588231  0.26437219  0.52028092    -0.14400
C324        C  0.26488674  0.02894369  0.52788080    -0.12800
C325        C  0.23629573  0.47148808  0.52011957    -0.14400
C326        C  0.47155677  0.23640593  0.52804475    -0.12800
C327        C  0.02906710  0.26458997  0.52036016    -0.14400
C328        C  0.33293619  0.66716152  0.57416886     0.45900
H329        H  0.33273356  0.66715195  0.59374969    -0.03100
C330        C  0.33339160  0.66708707  0.52865930     0.46000
H331        H  0.33360322  0.66705540  0.50915411    -0.03100
C332        C  0.40282557  0.70354994  0.56404355    -0.16800
C333        C  0.29935828  0.59738151  0.56396658    -0.16500
C334        C  0.29699099  0.70050150  0.56393290    -0.16900
C335        C  0.40591811  0.70409177  0.54007948    -0.16900
C336        C  0.29738737  0.59446096  0.53999506    -0.16500
C337        C  0.29659771  0.70271288  0.53997035    -0.16800
C338        C  0.16723992  0.83334275  0.51954065     0.45900
H339        H  0.16731251  0.83361937  0.53904714    -0.03100
C340        C  0.16703466  0.83270155  0.47398892     0.46000
H341        H  0.16693268  0.83242679  0.45438789    -0.03100
C342        C  0.09454650  0.79666366  0.50825363    -0.16800
C343        C  0.20354590  0.90583618  0.50809693    -0.16500
C344        C  0.20343301  0.79713191  0.50821583    -0.16900
C345        C  0.09731006  0.79760261  0.48429624    -0.16900
C346        C  0.20193399  0.90263448  0.48413249    -0.16500
C347        C  0.20198106  0.79834674  0.48426255    -0.16800
Zn348      Zn  0.16722116  0.83409741  0.66056354     1.49700
Zn349      Zn  0.07461146  0.78424848  0.69865167     1.49400
Zn350      Zn  0.21637181  0.79099911  0.69858902     1.49100
Zn351      Zn  0.21067132  0.92645511  0.69875827     1.49500
O352        O  0.16722465  0.83390196  0.69245196    -1.83700
O353        O  0.09813925  0.74665637  0.64893151    -0.74300
O354        O  0.05873803  0.70747030  0.71908932    -0.74100
O355        O  0.23818723  0.76174908  0.66712149    -0.73600
O356        O  0.02311099  0.76228669  0.66728086    -0.74300
O357        O  0.25458992  0.85298299  0.64896403    -0.73900
O358        O  0.16073062  0.71934446  0.72166182    -0.74500
O359        O  0.28169767  0.94246347  0.72196738    -0.73900
O360        O  0.05857973  0.83945330  0.72176213    -0.74600
O361        O  0.29324890  0.85231242  0.71909290    -0.74000
O362        O  0.14937035  0.94172847  0.71921136    -0.74500
O363        O  0.24056443  0.97817024  0.66738252    -0.74400
O364        O  0.14880313  0.90289198  0.64932349    -0.74200
C365        C  0.04300290  0.74564393  0.64881610     0.77600
C366        C  0.10142661  0.69688751  0.72951974     0.78100
C367        C  0.25512330  0.79861765  0.64872734     0.77100
C368        C  0.30371495  0.90545915  0.72973429     0.77400
C369        C  0.09562524  0.89881887  0.72961401     0.78600
C370        C  0.20337250  0.95814071  0.64905718     0.77600
C371        C  0.99928305  0.49984893  0.80724386     0.45900
H372        H  0.99903141  0.49964936  0.78764535    -0.03100
C373        C  0.99988001  0.50032382  0.85279237     0.46000
H374        H  0.00013491  0.50053476  0.87229789    -0.03100
C375        C  0.42958781  0.96399129  0.81763448    -0.16800
C376        C  0.03499163  0.96613548  0.81740138    -0.16500
C377        C  0.03366751  0.56976522  0.81742378    -0.16900
C378        C  0.42705221  0.96311873  0.84159863    -0.16900
C379        C  0.03649538  0.96469200  0.84135639    -0.16500
C380        C  0.03560645  0.57286217  0.84138810    -0.16800
C381        C  0.16606923  0.83411806  0.86199222     0.45900
H382        H  0.16654553  0.83406495  0.84248708    -0.03100
C383        C  0.16498613  0.83423966  0.90753279     0.46000
H384        H  0.16454995  0.83431097  0.92713231    -0.03100
C385        C  0.13069996  0.87134486  0.87316768    -0.16800
C386        C  0.12833820  0.76148551  0.87332338    -0.16500
C387        C  0.23845029  0.86955104  0.87353150    -0.16900
C388        C  0.13202469  0.87038244  0.89712503    -0.16900
C389        C  0.12871132  0.76443451  0.89728367    -0.16500
C390        C  0.23499865  0.86779411  0.89749390    -0.16800
C391        C  0.33560721  0.66854264  0.14058196     0.45900
H392        H  0.33596094  0.66859323  0.12099961    -0.03100
C393        C  0.33471847  0.66829396  0.18609754     0.46000
H394        H  0.33432810  0.66821026  0.20560344    -0.03100
C395        C  0.26561601  0.63460031  0.15062622    -0.16800
C396        C  0.36893128  0.63261721  0.15085698    -0.16500
C397        C  0.37164301  0.73829132  0.15084040    -0.16900
C398        C  0.26228552  0.63234119  0.17459721    -0.16900
C399        C  0.37063042  0.63174145  0.17482053    -0.16500
C400        C  0.37182308  0.74100346  0.17481509    -0.16800
C401        C  0.00096488  0.00200441  0.19528403     0.45900
H402        H  0.00080250  0.00167045  0.17577789    -0.03100
C403        C  0.00136612  0.00272616  0.24080486     0.46000
H404        H  0.00143795  0.50303022  0.26038709    -0.03100
C405        C  0.46451976  0.53797221  0.20661422    -0.16800
C406        C  0.46494269  0.92954241  0.20675516    -0.16500
C407        C  0.07368977  0.53895972  0.20653590    -0.16900
C408        C  0.46551645  0.53623737  0.23057477    -0.16900
C409        C  0.46719386  0.93277740  0.23072630    -0.16500
C410        C  0.07103783  0.53859649  0.23051021    -0.16800
Zn411      Zn  0.37997505  0.62105500  0.36533602     1.49700
Zn412      Zn  0.33436271  0.66769613  0.32752653     1.49400
Zn413      Zn  0.24110838  0.62046072  0.36538549     1.49100
Zn414      Zn  0.38062359  0.76010304  0.36551984     1.49500
O415        O  0.33391843  0.66730677  0.35939333    -1.83700
O416        O  0.40294525  0.59310704  0.33383121    -0.74300
O417        O  0.26475120  0.58069008  0.31579498    -0.74100
O418        O  0.22347311  0.54468718  0.38682997    -0.73600
O419        O  0.42154189  0.68565373  0.31610697    -0.74300
O420        O  0.32157812  0.54737500  0.38729121    -0.73900
O421        O  0.19033495  0.59800490  0.33379465    -0.74500
O422        O  0.32216013  0.77704438  0.38694748    -0.73900
O423        O  0.31725512  0.73713685  0.31601460    -0.74600
O424        O  0.22616935  0.67847194  0.38751320    -0.74000
O425        O  0.40940204  0.81175415  0.33406713    -0.74500
O426        O  0.45354142  0.77509359  0.38771025    -0.74400
O427        O  0.45563713  0.67939339  0.38682052    -0.75100
C428        C  0.42134591  0.63093572  0.31567763     0.77600
C429        C  0.21006236  0.58056976  0.31547470     0.78100
C430        C  0.26401199  0.52899774  0.39608329     0.77100
C431        C  0.26570343  0.73613597  0.39628280     0.77400
C432        C  0.37193806  0.79228223  0.31580490     0.78600
C433        C  0.47141956  0.73557163  0.39632723     0.77600
Zn434      Zn  0.00111051  0.50182477  0.05409604     1.49700
Zn435      Zn  0.45810139  0.55117688  0.01618106     1.49400
Zn436      Zn  0.09313494  0.54446188  0.01585112     1.49100
Zn437      Zn  0.45026448  0.90896823  0.01602511     1.49500
O438        O  0.00061496  0.50157026  0.02220742    -1.83700
O439        O  0.51996146  0.58923303  0.06565130    -0.74300
O440        O  0.02019137  0.62894964  0.99617238    -0.74100
O441        O  0.14518045  0.57496335  0.04717632    -0.73600
O442        O  0.42839004  0.57238382  0.04764138    -0.74300
O443        O  0.06998872  0.48360627  0.06543305    -0.73900
O444        O  0.10890436  0.61524844  0.99254705    -0.74500
O445        O  0.00492216  0.89321087  0.99255390    -0.73900
O446        O  0.38661209  0.99597667  0.99295808    -0.74600
O447        O  0.10808224  0.98247254  0.99563936    -0.74000
O448        O  0.37242979  0.89315683  0.99605602    -0.74500
O449        O  0.42961182  0.85778457  0.04749270    -0.74400
O450        O  0.41377159  0.93273196  0.06579159    -0.74200
C451        C  0.46554064  0.58964964  0.06596357     0.77600
C452        C  0.07263479  0.63862490  0.98521938     0.78100
C453        C  0.12535144  0.53806273  0.06556975     0.77100
C454        C  0.06467544  0.92956977  0.98493682     0.77400
C455        C  0.36266475  0.93614152  0.98542578     0.78600
C456        C  0.41314064  0.87778809  0.06597633     0.77600
C457        C  0.12807519  0.61148659  0.26401975    -0.12900
C458        C  0.12668000  0.56590172  0.24736339     0.09300
C459        C  0.15623064  0.52750445  0.25279719    -0.12900
C460        C  0.18222923  0.53103863  0.27525542    -0.12900
C461        C  0.17754895  0.57193961  0.29261161     0.09300
C462        C  0.15224908  0.61370473  0.28659174    -0.12900
H463        H  0.10437770  0.64064235  0.26023728     0.13300
H464        H  0.15384079  0.49066427  0.24041858     0.13300
H465        H  0.20396004  0.50022052  0.27933127     0.13300
H466        H  0.15117733  0.64805565  0.29933613     0.13300
C467        C  0.48430812  0.87692690  0.26417386    -0.12900
C468        C  0.43933421  0.87755160  0.24775231     0.09300
C469        C  0.37118343  0.84731527  0.25349871    -0.12900
C470        C  0.34920600  0.82090214  0.27597268    -0.12900
C471        C  0.39548027  0.82587334  0.29305948     0.09300
C472        C  0.46283862  0.85232148  0.28676987    -0.12900
H473        H  0.03732770  0.90119710  0.26016103     0.13300
H474        H  0.33614786  0.84918636  0.24132526     0.13300
H475        H  0.29643952  0.79839488  0.28025651     0.13300
H476        H  0.49882222  0.85375482  0.29929526     0.13300
C477        C  0.38890392  0.54037228  0.28647477    -0.12900
C478        C  0.43078770  0.60763180  0.29282461     0.09300
C479        C  0.47260231  0.65402263  0.27576184    -0.12900
C480        C  0.47675350  0.63217565  0.25324811    -0.12900
C481        C  0.43803751  0.56406842  0.24746431     0.09300
C482        C  0.39173189  0.51904501  0.26383766    -0.12900
H483        H  0.35392914  0.50434210  0.29899826     0.13300
H484        H  0.50357644  0.70672531  0.28010687     0.13300
H485        H  0.01417902  0.66721288  0.24109100     0.13300
H486        H  0.36243266  0.96604847  0.25979343     0.13300
C487        C  0.44393278  0.79456902  0.11709807    -0.12900
C488        C  0.39912220  0.79387904  0.13395479     0.09300
C489        C  0.36144121  0.82435250  0.12876522    -0.12900
C490        C  0.36482253  0.85055518  0.10635872    -0.12900
C491        C  0.40483540  0.84518397  0.08880495     0.09300
C492        C  0.44596109  0.81894877  0.09457180    -0.12900
H493        H  0.47252678  0.77016156  0.12069241     0.13300
H494        H  0.32518573  0.82253484  0.14129311     0.13300
H495        H  0.33451492  0.87297964  0.10247543     0.13300
H496        H  0.97963607  0.81728834  0.08166775     0.13300
C497        C  0.21050038  0.65160366  0.11691204    -0.12900
C498        C  0.21046119  0.60679824  0.13356670     0.09300
C499        C  0.17950586  0.53843530  0.12808212    -0.12900
C500        C  0.15308931  0.51601968  0.10563754    -0.12900
C501        C  0.15877192  0.56203521  0.08832179     0.09300
C502        C  0.18590274  0.62966625  0.09434382    -0.12900
H503        H  0.23534646  0.70477864  0.12072507     0.13300
H504        H  0.18085878  0.50350038  0.14043626     0.13300
H505        H  0.13004370  0.96306436  0.10155227     0.13300
H506        H  0.18791315  0.66550162  0.08162927     0.13300
C507        C  0.37411718  0.55716916  0.09480852    -0.12900
C508        C  0.44172008  0.59854820  0.08879688     0.09300
C509        C  0.48773670  0.63940804  0.10612300    -0.12900
C510        C  0.46525461  0.64325690  0.12856038    -0.12900
C511        C  0.39686154  0.60512630  0.13400234     0.09300
C512        C  0.35213612  0.55961482  0.11737159    -0.12900
H513        H  0.33831258  0.52291767  0.08207260     0.13300
H514        H  0.54066081  0.66996436  0.10203510     0.13300
H515        H  0.50010950  0.68008173  0.14091741     0.13300
H516        H  0.29893987  0.53071897  0.12116680     0.13300
C517        C  0.40306840  0.59901470  0.18692263    -0.12800
C518        C  0.43171929  0.57040725  0.19455830    -0.14400
C519        C  0.13911841  0.57128566  0.19435300    -0.12800
C520        C  0.19657615  0.59973781  0.18659826    -0.14400
C521        C  0.40403531  0.80643901  0.18698066    -0.12800
C522        C  0.43239232  0.86388742  0.19473274    -0.14400
C523        C  0.31037663  0.95669238  0.92450224    -0.12900
C524        C  0.28996072  0.89378304  0.91458068     0.09300
C525        C  0.29643949  0.84610082  0.92769328    -0.12900
C526        C  0.31670165  0.85848205  0.95111188    -0.12900
C527        C  0.33228452  0.91963895  0.96176263     0.09300
C528        C  0.33102217  0.96951325  0.94792855    -0.12900
H529        H  0.30526801  0.99395602  0.91468129     0.13300
H530        H  0.28044658  0.79707819  0.92036772     0.13300
H531        H  0.31976027  0.81990693  0.96087639     0.13300
H532        H  0.34542960  0.01830381  0.95522731     0.13300
C533        C  0.14237030  0.68876665  0.92371606    -0.12900
C534        C  0.09964098  0.70908642  0.91420383     0.09300
C535        C  0.04591949  0.70257834  0.92770578    -0.12900
C536        C  0.03919383  0.68304121  0.95116283    -0.12900
C537        C  0.08537585  0.66804322  0.96144202     0.09300
C538        C  0.13569501  0.66882997  0.94719112    -0.12900
H539        H  0.18431603  0.69374496  0.91355542     0.13300
H540        H  0.01262474  0.71834446  0.92067409     0.13300
H541        H  0.99803234  0.68018934  0.96125535     0.13300
H542        H  0.17037445  0.65469749  0.95420532     0.13300
C543        C  0.15356321  0.95473584  0.92692292    -0.12900
C544        C  0.10587478  0.89976572  0.91389716     0.09300
C545        C  0.04299859  0.85678654  0.92385052    -0.12900
C546        C  0.03050618  0.86450098  0.94732453    -0.12900
C547        C  0.08062528  0.91612842  0.96113168     0.09300
C548        C  0.14150515  0.96253382  0.95038520    -0.12900
H549        H  0.20249914  0.98825232  0.91953283     0.13300
H550        H  0.00566178  0.81392274  0.91404895     0.13300
H551        H  0.98185961  0.82955539  0.95469575     0.13300
H552        H  0.18017763  0.00465803  0.96012233     0.13300
C553        C  0.06967249  0.93256167  0.85334097    -0.12800
C554        C  0.09844073  0.90411035  0.86099672    -0.14400
C555        C  0.09602290  0.69592384  0.86122111    -0.12800
C556        C  0.06782487  0.63847677  0.85345367    -0.14400
C557        C  0.30421439  0.90181704  0.86157412    -0.12800
C558        C  0.36166479  0.93033635  0.85381113    -0.14400
C559        C  0.33392154  0.96974384  0.76752462    -0.12900
C560        C  0.33251053  0.91850977  0.75362497     0.09300
C561        C  0.34658137  0.87215860  0.76431262    -0.12900
C562        C  0.36630002  0.87983038  0.78777354    -0.12900
C563        C  0.37385999  0.93462102  0.80086079     0.09300
C564        C  0.35410086  0.97740400  0.79099493    -0.12900
H565        H  0.32033655  0.00452397  0.76021409     0.13300
H566        H  0.34308368  0.83026425  0.75451412     0.13300
H567        H  0.38154215  0.84643505  0.79510356     0.13300
H568        H  0.36003607  0.52034151  0.80079796     0.13300
C569        C  0.02471823  0.65262639  0.76412789    -0.12900
C570        C  0.08541119  0.66733509  0.75330569     0.09300
C571        C  0.13533625  0.66579473  0.76702284    -0.12900
C572        C  0.12273662  0.64515441  0.79045318    -0.12900
C573        C  0.06001748  0.62509238  0.80048069     0.09300
C574        C  0.01256204  0.63237525  0.78754562    -0.12900
H575        H  0.98621951  0.65611082  0.75447274     0.13300
H576        H  0.18389105  0.67975664  0.75961005     0.13300
H577        H  0.15990218  0.63961924  0.80016608     0.13300
H578        H  0.46374660  0.61680475  0.79497968     0.13300
C579        C  0.02963462  0.86464383  0.76703968    -0.12900
C580        C  0.08169459  0.91472483  0.75335632     0.09300
C581        C  0.12784111  0.97557830  0.76417727    -0.12900
C582        C  0.11936695  0.98769892  0.78756408    -0.12900
C583        C  0.06407283  0.94004781  0.80045897     0.09300
C584        C  0.02118190  0.87722744  0.79043476    -0.12900
H585        H  0.99489238  0.81598747  0.75962483     0.13300
H586        H  0.17025460  0.01421729  0.75454592     0.13300
H587        H  0.15288898  0.53639113  0.79506934     0.13300
H588        H  0.47803587  0.83992819  0.80012084     0.13300
C589        C  0.28921974  0.81667374  0.45598355    -0.12900
C590        C  0.22975232  0.77080616  0.46739042     0.09300
C591        C  0.18386648  0.71188240  0.45572785    -0.12900
C592        C  0.19371940  0.70227186  0.43219252    -0.12900
C593        C  0.25064729  0.75102036  0.42000911     0.09300
C594        C  0.29943236  0.80732938  0.43243912    -0.12900
H595        H  0.32525271  0.86241251  0.46476500     0.13300
H596        H  0.13770847  0.67589546  0.46429344     0.13300
H597        H  0.15646445  0.65677826  0.42353771     0.13300
H598        H  0.34539758  0.84440262  0.42398244     0.13300
C599        C  0.02837633  0.71100077  0.45573762    -0.12900
C600        C  0.04178670  0.76984538  0.46744692     0.09300
C601        C  0.02861872  0.81563920  0.45608061    -0.12900
C602        C  0.00926948  0.80640475  0.43253843    -0.12900
C603        C  0.50130473  0.75016774  0.42005896     0.09300
C604        C  0.50893310  0.70140505  0.43219391    -0.12900
H605        H  0.03817952  0.67504160  0.46428164     0.13300
H606        H  0.03863875  0.86131665  0.46488300     0.13300
H607        H  0.00093117  0.84358041  0.42411329     0.13300
H608        H  0.50021715  0.65592942  0.42350544     0.13300
C609        C  0.18356212  0.97110885  0.45579132    -0.12900
C610        C  0.22935599  0.95781026  0.46712975     0.09300
C611        C  0.28798274  0.97092463  0.45535368    -0.12900
C612        C  0.29751565  0.99046995  0.43183543    -0.12900
C613        C  0.24894408  0.49861995  0.41974865     0.09300
C614        C  0.19285617  0.49080746  0.43227410    -0.12900
H615        H  0.13799425  0.96124605  0.46463397     0.13300
H616        H  0.32384410  0.96084887  0.46382814     0.13300
H617        H  0.34284047  0.99886297  0.42312004     0.13300
H618        H  0.15593670  0.49965209  0.42390951     0.13300
C619        C  0.30661351  0.79699455  0.58590150    -0.12900
C620        C  0.26940571  0.72831138  0.58082023     0.09300
C621        C  0.22497917  0.68381399  0.59773906    -0.12900
C622        C  0.22299265  0.70640601  0.62024042    -0.12900
C623        C  0.26360529  0.77437819  0.62590451     0.09300
C624        C  0.30313058  0.82006212  0.60828003    -0.12900
H625        H  0.34256586  0.83175033  0.57331144     0.13300
H626        H  0.19674314  0.63043205  0.59421538     0.13300
H627        H  0.18969782  0.67076305  0.63320293     0.13300
H628        H  0.33300787  0.87322559  0.61208726     0.13300
C629        C  0.48977334  0.69440901  0.58598260    -0.12900
C630        C  0.45815462  0.73113891  0.58102109     0.09300
C631        C  0.45782135  0.77501052  0.59805664    -0.12900
C632        C  0.48241608  0.77700698  0.62052753    -0.12900
C633        C  0.01001319  0.73693365  0.62605494     0.09300
C634        C  0.01629687  0.69787405  0.60833701    -0.12900
H635        H  0.48873575  0.65884760  0.57330503     0.13300
H636        H  0.43250262  0.80282450  0.59463130     0.13300
H637        H  0.47994966  0.80993128  0.63356663     0.13300
H638        H  0.03973379  0.66839563  0.61204312     0.13300
C639        C  0.20335666  0.51077579  0.58636697    -0.12900
C640        C  0.27174608  0.54199317  0.58091075     0.09300
C641        C  0.31665973  0.54240874  0.59760517    -0.12900
C642        C  0.29483156  0.51827086  0.62021736    -0.12900
C643        C  0.22718740  0.99104092  0.62622925     0.09300
C644        C  0.18104172  0.48473166  0.60885304    -0.12900
H645        H  0.16833093  0.51180626  0.57397232     0.13300
H646        H  0.36985982  0.56746735  0.59380794     0.13300
H647        H  0.33077216  0.02074122  0.63299531     0.13300
H648        H  0.12808650  0.46157392  0.61292802     0.13300
C649        C  0.26426719  0.73552852  0.52788782    -0.12800
C650        C  0.23588191  0.76438854  0.52026529    -0.14400
C651        C  0.26489056  0.52894368  0.52787345    -0.12800
C652        C  0.23627729  0.97148983  0.52012538    -0.14400
C653        C  0.47154284  0.73639742  0.52804871    -0.12800
C654        C  0.02905225  0.76457631  0.52036307    -0.14400
C655        C  0.83298343  0.16716416  0.57417567     0.45900
H656        H  0.83279688  0.16715967  0.59375656    -0.03100
C657        C  0.83340365  0.16708576  0.52866589     0.46000
H658        H  0.83360030  0.16705268  0.50916063    -0.03100
C659        C  0.90286409  0.20355032  0.56404358    -0.16800
C660        C  0.79939610  0.09738266  0.56397409    -0.16500
C661        C  0.79702951  0.20050219  0.56394512    -0.16900
C662        C  0.90593857  0.20409265  0.54007956    -0.16900
C663        C  0.79740540  0.09446084  0.54000245    -0.16500
C664        C  0.79661772  0.20271105  0.53998267    -0.16800
C665        C  0.66725476  0.33334089  0.51954339     0.45900
H666        H  0.66732150  0.33362753  0.53905001    -0.03100
C667        C  0.66706285  0.33267574  0.47399160     0.46000
H668        H  0.66696583  0.33239133  0.45439060    -0.03100
C669        C  0.59456495  0.29667274  0.50825361    -0.16800
C670        C  0.70357743  0.40582845  0.50809501    -0.16500
C671        C  0.70343533  0.29710844  0.50822573    -0.16900
C672        C  0.59733559  0.29760442  0.48429642    -0.16900
C673        C  0.70197747  0.40261412  0.48413063    -0.16500
C674        C  0.70198468  0.29830446  0.48427223    -0.16800
Zn675      Zn  0.66725731  0.33408937  0.66056696     1.49700
Zn676      Zn  0.57463420  0.28428783  0.69864555     1.49400
Zn677      Zn  0.71636986  0.29099082  0.69860024     1.49100
Zn678      Zn  0.71072206  0.42647841  0.69875577     1.49500
O679        O  0.66725404  0.33391959  0.69245482    -1.83700
O680        O  0.59817249  0.24664487  0.64893539    -0.74300
O681        O  0.55872157  0.20750897  0.71908986    -0.74100
O682        O  0.73819157  0.26172156  0.66713783    -0.73600
O683        O  0.52315882  0.26232570  0.66727125    -0.74300
O684        O  0.75463145  0.35296704  0.64897934    -0.73900
O685        O  0.66070022  0.21935519  0.72167440    -0.74500
O686        O  0.78179799  0.44251871  0.72194758    -0.73900
O687        O  0.55858576  0.33950238  0.72174539    -0.74600
O688        O  0.79324135  0.35229734  0.71910514    -0.74000
O689        O  0.64944765  0.44173916  0.71922930    -0.74500
O690        O  0.74057303  0.47818798  0.66737739    -0.74400
O691        O  0.64883886  0.40287132  0.64931451    -0.74200
C692        C  0.54304976  0.24566085  0.64881168     0.77600
C693        C  0.60139339  0.19691449  0.72952679     0.78100
C694        C  0.75515041  0.29859428  0.64874442     0.77100
C695        C  0.80377107  0.40549019  0.72972799     0.77400
C696        C  0.59566081  0.39884301  0.72961429     0.78600
C697        C  0.70338608  0.45814047  0.64905109     0.77600
C698        C  0.49925237  0.99985335  0.80724441     0.45900
H699        H  0.49899578  0.99965603  0.78764595    -0.03100
C700        C  0.49986249  0.00032271  0.85279275     0.46000
H701        H  0.50012172  0.00053038  0.87229825    -0.03100
C702        C  0.92961454  0.46403992  0.81763242    -0.16800
C703        C  0.53496888  0.46608056  0.81740424    -0.16500
C704        C  0.53358623  0.06976694  0.81742544    -0.16900
C705        C  0.92707239  0.46315551  0.84159642    -0.16900
C706        C  0.53647905  0.46465430  0.84135945    -0.16500
C707        C  0.53554953  0.07286198  0.84138967    -0.16800
C708        C  0.66608108  0.33411924  0.86199449     0.45900
H709        H  0.66654858  0.33406657  0.84248927    -0.03100
C710        C  0.66501720  0.33423905  0.90753515     0.46000
H711        H  0.66458754  0.33430903  0.92713488    -0.03100
C712        C  0.63071055  0.37133911  0.87317349    -0.16800
C713        C  0.62835376  0.26148615  0.87332539    -0.16500
C714        C  0.73846840  0.36955867  0.87353037    -0.16900
C715        C  0.63204580  0.37037701  0.89713089    -0.16900
C716        C  0.62874060  0.26443468  0.89728575    -0.16500
C717        C  0.73502597  0.36779889  0.89749303    -0.16800
C718        C  0.83565324  0.16853633  0.14058225     0.45900
H719        H  0.83601681  0.16858359  0.12099973    -0.03100
C720        C  0.83473939  0.16829196  0.18609783     0.46000
H721        H  0.83433783  0.16821072  0.20560380    -0.03100
C722        C  0.76565606  0.13458971  0.15062162    -0.16800
C723        C  0.86897517  0.13261591  0.15086302    -0.16500
C724        C  0.87167845  0.23828663  0.15084001    -0.16900
C725        C  0.76231318  0.13233494  0.17459274    -0.16900
C726        C  0.87066095  0.13174174  0.17482668    -0.16500
C727        C  0.87184428  0.24100006  0.17481471    -0.16800
C728        C  0.50093890  0.50200055  0.19528155     0.45900
H729        H  0.50078591  0.50166386  0.17577541    -0.03100
C730        C  0.50131827  0.50272793  0.24080238     0.46000
H731        H  0.50149509  0.00302622  0.26038956    -0.03100
C732        C  0.96455260  0.03797606  0.20662192    -0.16800
C733        C  0.96491415  0.42953987  0.20675391    -0.16500
C734        C  0.57372125  0.03896101  0.20653418    -0.16900
C735        C  0.96556125  0.03623899  0.23058244    -0.16900
C736        C  0.96715309  0.43277779  0.23072516    -0.16500
C737        C  0.57108070  0.03859433  0.23050877    -0.16800
Zn738      Zn  0.88004189  0.12111312  0.36534214     1.49700
Zn739      Zn  0.83438601  0.16769053  0.32752611     1.49400
Zn740      Zn  0.74112793  0.12042004  0.36538474     1.49100
Zn741      Zn  0.88059154  0.26011120  0.36552321     1.49500
O742        O  0.83394011  0.16731562  0.35939386    -1.83700
O743        O  0.90300119  0.09313716  0.33384168    -0.74300
O744        O  0.76478398  0.08067348  0.31579617    -0.74100
O745        O  0.72350042  0.04461668  0.38681108    -0.73600
O746        O  0.92157435  0.18566529  0.31610922    -0.74300
O747        O  0.82168412  0.04747105  0.38731610    -0.73900
O748        O  0.69036036  0.09798291  0.33379306    -0.74500
O749        O  0.82208792  0.27700930  0.38694623    -0.73900
O750        O  0.81725289  0.23711030  0.31601024    -0.74600
O751        O  0.72616300  0.17837762  0.38753150    -0.74000
O752        O  0.90936679  0.31176625  0.33406997    -0.74500
O753        O  0.95350508  0.27513380  0.38772233    -0.74400
O754        O  0.95572716  0.17950102  0.38680852    -0.75100
C755        C  0.92139428  0.13095484  0.31568529     0.77600
C756        C  0.71009399  0.08055157  0.31547365     0.78100
C757        C  0.76407764  0.02901433  0.39608719     0.77100
C758        C  0.76566455  0.23606051  0.39629407     0.77400
C759        C  0.87191547  0.29227529  0.31580445     0.78600
C760        C  0.97144860  0.23564929  0.39632673     0.77600
Zn761      Zn  0.50108160  0.00181129  0.05409225     1.49700
Zn762      Zn  0.95804126  0.05114172  0.01618168     1.49400
Zn763      Zn  0.59310365  0.04447428  0.01585138     1.49100
Zn764      Zn  0.95027491  0.40898030  0.01602769     1.49500
O765        O  0.50058188  0.00155732  0.02220422    -1.83700
O766        O  0.01993998  0.08922339  0.06564323    -0.74300
O767        O  0.52010418  0.12890026  0.99616163    -0.74100
O768        O  0.64515094  0.07495248  0.04717624    -0.73600
O769        O  0.92834731  0.07235495  0.04764506    -0.74300
O770        O  0.56996046  0.98360114  0.06543644    -0.73900
O771        O  0.60887614  0.11528571  0.99255969    -0.74500
O772        O  0.50491799  0.39320122  0.99255676    -0.73900
O773        O  0.88669161  0.49603191  0.99294795    -0.74600
O774        O  0.60809859  0.48242465  0.99565265    -0.74000
O775        O  0.87244547  0.39318957  0.99605928    -0.74500
O776        O  0.92961644  0.35779074  0.04749398    -0.74400
O777        O  0.91380100  0.43274808  0.06579700    -0.74200
C778        C  0.96551521  0.08963044  0.06596293     0.77600
C779        C  0.57258285  0.13862364  0.98522168     0.78100
C780        C  0.62532926  0.03805192  0.06556970     0.77100
C781        C  0.56468128  0.42953634  0.98494577     0.77400
C782        C  0.86271664  0.43618772  0.98542117     0.78600
C783        C  0.91315853  0.37779872  0.06597949     0.77600
C784        C  0.62813851  0.11149280  0.26401404    -0.12900
C785        C  0.62672949  0.06589764  0.24735941     0.09300
C786        C  0.65626358  0.02748604  0.25279561    -0.12900
C787        C  0.68225753  0.03101633  0.27525449    -0.12900
C788        C  0.67758865  0.07192751  0.29260906     0.09300
C789        C  0.65230664  0.11370667  0.28658676    -0.12900
H790        H  0.60445301  0.14065917  0.26023020     0.13300
H791        H  0.65386243  0.99063838  0.24041847     0.13300
H792        H  0.70397430  0.00018572  0.27933221     0.13300
H793        H  0.65124367  0.14806435  0.29932988     0.13300
C794        C  0.98427993  0.37694219  0.26417449    -0.12900
C795        C  0.93930064  0.37755456  0.24775240     0.09300
C796        C  0.87114818  0.34730569  0.25349865    -0.12900
C797        C  0.84917401  0.32088933  0.27597256    -0.12900
C798        C  0.89545281  0.32587296  0.29305981     0.09300
C799        C  0.96281357  0.35233596  0.28677059    -0.12900
H800        H  0.53730020  0.40122140  0.26016179     0.13300
H801        H  0.83610764  0.34916697  0.24132475     0.13300
H802        H  0.79640507  0.29836897  0.28025625     0.13300
H803        H  0.99880071  0.35377844  0.29929621     0.13300
C804        C  0.88896640  0.04038182  0.28648773    -0.12900
C805        C  0.93084511  0.10764414  0.29283507     0.09300
C806        C  0.97265970  0.15403122  0.27577126    -0.12900
C807        C  0.97681034  0.13217944  0.25325831    -0.12900
C808        C  0.93809342  0.06407127  0.24747603     0.09300
C809        C  0.89179421  0.01904954  0.26385142    -0.12900
H810        H  0.85399263  0.00435387  0.29901227     0.13300
H811        H  0.00363134  0.20673516  0.28011468     0.13300
H812        H  0.51423233  0.16721495  0.24109988     0.13300
H813        H  0.86236966  0.46604602  0.25977825     0.13300
C814        C  0.94395612  0.29456381  0.11709456    -0.12900
C815        C  0.89915285  0.29387439  0.13395412     0.09300
C816        C  0.86147754  0.32435748  0.12876939    -0.12900
C817        C  0.86485480  0.35056656  0.10636425    -0.12900
C818        C  0.90485749  0.34519197  0.08880725     0.09300
C819        C  0.94597945  0.31894888  0.09456965    -0.12900
H820        H  0.97254767  0.27015131  0.12068563     0.13300
H821        H  0.82522925  0.32254207  0.14129977     0.13300
H822        H  0.83455169  0.37299914  0.10248469     0.13300
H823        H  0.47964705  0.31728684  0.08166327     0.13300
C824        C  0.71055765  0.15160034  0.11690288    -0.12900
C825        C  0.71050958  0.10679280  0.13355836     0.09300
C826        C  0.67953480  0.03842676  0.12807600    -0.12900
C827        C  0.65309299  0.01600682  0.10563421    -0.12900
C828        C  0.65877359  0.06202141  0.08831847     0.09300
C829        C  0.68593588  0.12965844  0.09433749    -0.12900
H830        H  0.73542103  0.20477779  0.12071333     0.13300
H831        H  0.68088217  0.00348991  0.14043040     0.13300
H832        H  0.63006048  0.46308058  0.10155323     0.13300
H833        H  0.68794792  0.16549419  0.08162324     0.13300
C834        C  0.87412502  0.05712227  0.09482424    -0.12900
C835        C  0.94171457  0.09852702  0.08880036     0.09300
C836        C  0.98774618  0.13941275  0.10611828    -0.12900
C837        C  0.96528744  0.14326491  0.12855931    -0.12900
C838        C  0.89690329  0.10511321  0.13401281     0.09300
C839        C  0.85216772  0.05957216  0.11739099    -0.12900
H840        H  0.83831274  0.02285033  0.08209463     0.13300
H841        H  0.04066259  0.16998809  0.10202086     0.13300
H842        H  0.00014831  0.18011141  0.14090941     0.13300
H843        H  0.79897695  0.03065932  0.12119514     0.13300
C844        C  0.90309414  0.09901672  0.18693317    -0.12800
C845        C  0.93174573  0.07041058  0.19456958    -0.14400
C846        C  0.63914398  0.07128701  0.19434745    -0.12800
C847        C  0.69659970  0.09973623  0.18659095    -0.14400
C848        C  0.90403796  0.30643579  0.18698008    -0.12800
C849        C  0.93238039  0.36388412  0.19473211    -0.14400
C850        C  0.81041874  0.45671500  0.92449492    -0.12900
C851        C  0.78999564  0.39379891  0.91457746     0.09300
C852        C  0.79648064  0.34612417  0.92769265    -0.12900
C853        C  0.81675218  0.35851805  0.95111011    -0.12900
C854        C  0.83234030  0.41968069  0.96175727     0.09300
C855        C  0.83107628  0.46954915  0.94792014    -0.12900
H856        H  0.80530563  0.49397353  0.91467218     0.13300
H857        H  0.78048418  0.29709757  0.92037047     0.13300
H858        H  0.81981274  0.31994660  0.96087675     0.13300
H859        H  0.84548799  0.51834361  0.95521622     0.13300
C860        C  0.64238601  0.18878113  0.92372819    -0.12900
C861        C  0.59965746  0.20908651  0.91420545     0.09300
C862        C  0.54591541  0.20256741  0.92769759    -0.12900
C863        C  0.53916654  0.18303262  0.95115561    -0.12900
C864        C  0.58534636  0.16804891  0.96144520     0.09300
C865        C  0.63568870  0.16884873  0.94720396    -0.12900
H866        H  0.68434673  0.19376709  0.91357523     0.13300
H867        H  0.51261974  0.21832000  0.92065712     0.13300
H868        H  0.49798820  0.18016964  0.96124051     0.13300
H869        H  0.67036787  0.15472691  0.95422601     0.13300
C870        C  0.65358106  0.45471082  0.92693523    -0.12900
C871        C  0.60589289  0.39974948  0.91390610     0.09300
C872        C  0.54301532  0.35676607  0.92385762    -0.12900
C873        C  0.53051918  0.36447075  0.94733232    -0.12900
C874        C  0.58063636  0.41609252  0.96114186     0.09300
C875        C  0.64151995  0.46249790  0.95039801    -0.12900
H876        H  0.70251851  0.48822852  0.91954704     0.13300
H877        H  0.50567808  0.31390902  0.91405333     0.13300
H878        H  0.48187131  0.32952497  0.95470198     0.13300
H879        H  0.68019249  0.50461711  0.96013719     0.13300
C880        C  0.56965485  0.43252822  0.85334732    -0.12800
C881        C  0.59843297  0.40408883  0.86100455    -0.14400
C882        C  0.59600732  0.19592403  0.86122292    -0.12800
C883        C  0.56778413  0.13847606  0.85345578    -0.14400
C884        C  0.80423042  0.40184126  0.86157049    -0.12800
C885        C  0.86168132  0.43037243  0.85380725    -0.14400
C886        C  0.83411290  0.46990404  0.76749138    -0.12900
C887        C  0.83257699  0.41856850  0.75361705     0.09300
C888        C  0.84650807  0.37215170  0.76433207    -0.12900
C889        C  0.86620662  0.37984483  0.78779562    -0.12900
C890        C  0.87388923  0.43472089  0.80085775     0.09300
C891        C  0.85427115  0.47758317  0.79096418    -0.12900
H892        H  0.82063712  0.50474279  0.76015978     0.13300
H893        H  0.84290653  0.33018072  0.75455396     0.13300
H894        H  0.88132902  0.34638192  0.79514888     0.13300
H895        H  0.85977842  0.02010180  0.80084681     0.13300
C896        C  0.52458415  0.15251192  0.76410587    -0.12900
C897        C  0.58535367  0.16736286  0.75331238     0.09300
C898        C  0.63530457  0.16595185  0.76705608    -0.12900
C899        C  0.62266717  0.14529862  0.79048449    -0.12900
C900        C  0.55988441  0.12509330  0.80048302     0.09300
C901        C  0.51238821  0.13224572  0.78752144    -0.12900
H902        H  0.48605501  0.15588778  0.75442883     0.13300
H903        H  0.68391293  0.18002642  0.75966566     0.13300
H904        H  0.65986156  0.13985794  0.80021711     0.13300
H905        H  0.96352048  0.11655525  0.79493231     0.13300
C906        C  0.52953146  0.36466009  0.76700996    -0.12900
C907        C  0.58170477  0.41471923  0.75335766     0.09300
C908        C  0.62791854  0.47548714  0.76421245    -0.12900
C909        C  0.61940717  0.48755805  0.78760154    -0.12900
C910        C  0.56401166  0.43994527  0.80046466     0.09300
C911        C  0.52104465  0.37719389  0.79040717    -0.12900
H912        H  0.49472902  0.31606130  0.75956927     0.13300
H913        H  0.67041788  0.51409749  0.75460630     0.13300
H914        H  0.65278212  0.03658850  0.79500482     0.13300
H915        H  0.97782733  0.33992099  0.80006978     0.13300
C916        C  0.78921937  0.31657742  0.45600077    -0.12900
C917        C  0.72973984  0.27073224  0.46740591     0.09300
C918        C  0.68383870  0.21181442  0.45574310    -0.12900
C919        C  0.69368646  0.20219696  0.43220752    -0.12900
C920        C  0.75062189  0.25093454  0.42002436     0.09300
C921        C  0.79942474  0.30722876  0.43245613    -0.12900
H922        H  0.82526569  0.36230830  0.46478304     0.13300
H923        H  0.63767297  0.17584273  0.46430806     0.13300
H924        H  0.65641804  0.15671277  0.42355130     0.13300
H925        H  0.84539920  0.34429004  0.42400033     0.13300
C926        C  0.52839443  0.21103521  0.45573093    -0.12900
C927        C  0.54181752  0.26987530  0.46744530     0.09300
C928        C  0.52866680  0.31568813  0.45608380    -0.12900
C929        C  0.50931482  0.30647102  0.43254166    -0.12900
C930        C  0.00133808  0.25023708  0.42005749     0.09300
C931        C  0.00895541  0.20146031  0.43218735    -0.12900
H932        H  0.53818370  0.17506198  0.46427083     0.13300
H933        H  0.53869876  0.36136315  0.46489017     0.13300
H934        H  0.50098678  0.34365823  0.42412008     0.13300
H935        H  0.00022947  0.15598594  0.42349558     0.13300
C936        C  0.68359981  0.47112163  0.45580447    -0.12900
C937        C  0.72938897  0.45778045  0.46712407     0.09300
C938        C  0.78797375  0.47084667  0.45532847    -0.12900
C939        C  0.79746841  0.49039396  0.43181088    -0.12900
C940        C  0.74898687  0.99864570  0.41975389     0.09300
C941        C  0.69285580  0.99079140  0.43226076    -0.12900
H942        H  0.63806183  0.46129319  0.46466200     0.13300
H943        H  0.82382848  0.46073300  0.46378725     0.13300
H944        H  0.84276235  0.49875140  0.42308111     0.13300
H945        H  0.65592992  0.99959948  0.42388137     0.13300
C946        C  0.80665991  0.29698558  0.58592125    -0.12900
C947        C  0.76944865  0.22830538  0.58083655     0.09300
C948        C  0.72502115  0.18380167  0.59775384    -0.12900
C949        C  0.72303028  0.20638597  0.62025622    -0.12900
C950        C  0.76364313  0.27435625  0.62592306     0.09300
C951        C  0.80317564  0.32004491  0.60830084    -0.12900
H952        H  0.84261330  0.33174556  0.57333248     0.13300
H953        H  0.69678446  0.13042157  0.59422765     0.13300
H954        H  0.68973144  0.17073908  0.63321687     0.13300
H955        H  0.83305507  0.37320677  0.61211010     0.13300
C956        C  0.98981281  0.19440571  0.58597945    -0.12900
C957        C  0.95820812  0.23114707  0.58101475     0.09300
C958        C  0.95790098  0.27504338  0.59804504    -0.12900
C959        C  0.98250141  0.27704936  0.62051557    -0.12900
C960        C  0.51007746  0.23696012  0.62604751     0.09300
C961        C  0.51634257  0.19787976  0.60833346    -0.12900
H962        H  0.98875528  0.15882621  0.57330575     0.13300
H963        H  0.93259433  0.30286685  0.59461731     0.13300
H964        H  0.98005110  0.30999009  0.63355127     0.13300
H965        H  0.53976289  0.16838811  0.61204287     0.13300
C966        C  0.70338272  0.01076956  0.58636866    -0.12900
C967        C  0.77177652  0.04199437  0.58091864     0.09300
C968        C  0.81668009  0.04240969  0.59761740    -0.12900
C969        C  0.79483699  0.01826542  0.62022794    -0.12900
C970        C  0.72718696  0.49105103  0.62622441     0.09300
C971        C  0.68105340  0.98472136  0.60885330    -0.12900
H972        H  0.66836442  0.01179934  0.57397075     0.13300
H973        H  0.86988355  0.06747332  0.59382490     0.13300
H974        H  0.83077395  0.52074507  0.63298116     0.13300
H975        H  0.62809511  0.96156270  0.61292353     0.13300
C976        C  0.76427336  0.23551902  0.52790433    -0.12800
C977        C  0.73588234  0.26437219  0.52028092    -0.14400
C978        C  0.76488679  0.02894369  0.52788080    -0.12800
C979        C  0.73629576  0.47148809  0.52011957    -0.14400
C980        C  0.97155677  0.23640594  0.52804475    -0.12800
C981        C  0.52906710  0.26458997  0.52036016    -0.14400
C982        C  0.83293614  0.66716154  0.57416886     0.45900
H983        H  0.83273349  0.66715202  0.59374969    -0.03100
C984        C  0.83339160  0.66708707  0.52865931     0.46000
H985        H  0.83360326  0.66705541  0.50915411    -0.03100
C986        C  0.90282554  0.70354995  0.56404356    -0.16800
C987        C  0.79935829  0.59738153  0.56396658    -0.16500
C988        C  0.79699097  0.70050146  0.56393287    -0.16900
C989        C  0.90591810  0.70409176  0.54007949    -0.16900
C990        C  0.79738740  0.59446097  0.53999507    -0.16500
C991        C  0.79659771  0.70271287  0.53997033    -0.16800
C992        C  0.66723989  0.83334276  0.51954066     0.45900
H993        H  0.66731255  0.83361939  0.53904716    -0.03100
C994        C  0.66703455  0.83270157  0.47398893     0.46000
H995        H  0.66693245  0.83242686  0.45438789    -0.03100
C996        C  0.59454645  0.79666360  0.50825365    -0.16800
C997        C  0.70354584  0.90583619  0.50809694    -0.16500
C998        C  0.70343300  0.79713195  0.50821582    -0.16900
C999        C  0.59730997  0.79760258  0.48429626    -0.16900
C1000       C  0.70193420  0.90263450  0.48413250    -0.16500
C1001       C  0.70198094  0.79834669  0.48426253    -0.16800
Zn1002     Zn  0.66722119  0.83409740  0.66056353     1.49700
Zn1003     Zn  0.57461147  0.78424848  0.69865167     1.49400
Zn1004     Zn  0.71637184  0.79099912  0.69858902     1.49100
Zn1005     Zn  0.71067134  0.92645510  0.69875827     1.49500
O1006       O  0.66722467  0.83390198  0.69245196    -1.83700
O1007       O  0.59813925  0.74665637  0.64893151    -0.74300
O1008       O  0.55873806  0.70747030  0.71908932    -0.74100
O1009       O  0.73818726  0.76174907  0.66712149    -0.73600
O1010       O  0.52311079  0.76228672  0.66728087    -0.74300
O1011       O  0.75458994  0.85298296  0.64896403    -0.73900
O1012       O  0.66073066  0.71934447  0.72166182    -0.74500
O1013       O  0.78169771  0.94246346  0.72196737    -0.73900
O1014       O  0.55857974  0.83945327  0.72176214    -0.74600
O1015       O  0.79324894  0.85231241  0.71909290    -0.74000
O1016       O  0.64937035  0.94172844  0.71921138    -0.74500
O1017       O  0.74056434  0.97817017  0.66738248    -0.74400
O1018       O  0.64880323  0.90289191  0.64932346    -0.74200
C1019       C  0.54300281  0.74564394  0.64881613     0.77600
C1020       C  0.60142665  0.69688752  0.72951974     0.78100
C1021       C  0.75512334  0.79861764  0.64872734     0.77100
C1022       C  0.80371499  0.90545915  0.72973429     0.77400
C1023       C  0.59562522  0.89881884  0.72961401     0.78600
C1024       C  0.70337251  0.95814066  0.64905713     0.77600
C1025       C  0.49928317  0.49984897  0.80724386     0.45900
H1026       H  0.49903166  0.49964942  0.78764534    -0.03100
C1027       C  0.49987999  0.50032384  0.85279239     0.46000
H1028       H  0.50013474  0.50053481  0.87229790    -0.03100
C1029       C  0.92958784  0.96399129  0.81763451    -0.16800
C1030       C  0.53499183  0.96613559  0.81740138    -0.16500
C1031       C  0.53366755  0.56976524  0.81742378    -0.16900
C1032       C  0.92705223  0.96311874  0.84159865    -0.16900
C1033       C  0.53649536  0.96469195  0.84135639    -0.16500
C1034       C  0.53560644  0.57286219  0.84138811    -0.16800
C1035       C  0.66606926  0.83411805  0.86199223     0.45900
H1036       H  0.66654556  0.83406494  0.84248709    -0.03100
C1037       C  0.66498614  0.83423969  0.90753280     0.46000
H1038       H  0.66454998  0.83431103  0.92713232    -0.03100
C1039       C  0.63069998  0.87134489  0.87316768    -0.16800
C1040       C  0.62833822  0.76148550  0.87332339    -0.16500
C1041       C  0.73845032  0.86955103  0.87353150    -0.16900
C1042       C  0.63202468  0.87038247  0.89712504    -0.16900
C1043       C  0.62871129  0.76443453  0.89728368    -0.16500
C1044       C  0.73499868  0.86779410  0.89749391    -0.16800
C1045       C  0.83560718  0.66854262  0.14058197     0.45900
H1046       H  0.83596093  0.66859323  0.12099962    -0.03100
C1047       C  0.83471845  0.66829394  0.18609754     0.46000
H1048       H  0.83432812  0.66821026  0.20560345    -0.03100
C1049       C  0.76561599  0.63460029  0.15062623    -0.16800
C1050       C  0.86893117  0.63261712  0.15085698    -0.16500
C1051       C  0.87164303  0.73829131  0.15084041    -0.16900
C1052       C  0.76228551  0.63234118  0.17459721    -0.16900
C1053       C  0.87063040  0.63174143  0.17482053    -0.16500
C1054       C  0.87182309  0.74100345  0.17481509    -0.16800
C1055       C  0.50096491  0.00200447  0.19528403     0.45900
H1056       H  0.50080256  0.00167052  0.17577789    -0.03100
C1057       C  0.50136615  0.00272614  0.24080485     0.46000
H1058       H  0.50143797  0.50303023  0.26038708    -0.03100
C1059       C  0.96451977  0.53797220  0.20661422    -0.16800
C1060       C  0.96494255  0.92954239  0.20675517    -0.16500
C1061       C  0.57368977  0.53895978  0.20653588    -0.16900
C1062       C  0.96551634  0.53623730  0.23057477    -0.16900
C1063       C  0.96719402  0.93277740  0.23072630    -0.16500
C1064       C  0.57103782  0.53859647  0.23051020    -0.16800
Zn1065     Zn  0.87997509  0.62105502  0.36533602     1.49700
Zn1066     Zn  0.83436275  0.66769614  0.32752653     1.49400
Zn1067     Zn  0.74110837  0.62046071  0.36538550     1.49100
Zn1068     Zn  0.88062357  0.76010307  0.36551984     1.49500
O1069       O  0.83391847  0.66730679  0.35939333    -1.83700
O1070       O  0.90294528  0.59310704  0.33383122    -0.74300
O1071       O  0.76475124  0.58069008  0.31579498    -0.74100
O1072       O  0.72347286  0.54468713  0.38682998    -0.73600
O1073       O  0.92154192  0.68565372  0.31610697    -0.74300
O1074       O  0.82157814  0.54737501  0.38729122    -0.73900
O1075       O  0.69033498  0.59800490  0.33379465    -0.74500
O1076       O  0.82216014  0.77704453  0.38694740    -0.73900
O1077       O  0.81725516  0.73713686  0.31601460    -0.74600
O1078       O  0.72616928  0.67847192  0.38751321    -0.74000
O1079       O  0.90940208  0.81175414  0.33406713    -0.74500
O1080       O  0.95354141  0.77509359  0.38771025    -0.74400
O1081       O  0.95563716  0.67939340  0.38682052    -0.75100
C1082       C  0.92134597  0.63093573  0.31567763     0.77600
C1083       C  0.71006239  0.58056976  0.31547470     0.78100
C1084       C  0.76401190  0.52899775  0.39608328     0.77100
C1085       C  0.76570350  0.73613597  0.39628279     0.77400
C1086       C  0.87193811  0.79228223  0.31580490     0.78600
C1087       C  0.97141956  0.73557163  0.39632723     0.77600
Zn1088     Zn  0.50111051  0.50182479  0.05409604     1.49700
Zn1089     Zn  0.95810144  0.55117694  0.01618106     1.49400
Zn1090     Zn  0.59313494  0.54446186  0.01585112     1.49100
Zn1091     Zn  0.95026448  0.90896824  0.01602509     1.49500
O1092       O  0.50061494  0.50157025  0.02220741    -1.83700
O1093       O  0.01996153  0.58923302  0.06565134    -0.74300
O1094       O  0.52019140  0.62894964  0.99617240    -0.74100
O1095       O  0.64518044  0.57496343  0.04717634    -0.73600
O1096       O  0.92839040  0.57238405  0.04764137    -0.74300
O1097       O  0.56998877  0.48360640  0.06543307    -0.73900
O1098       O  0.60890439  0.61524841  0.99254707    -0.74500
O1099       O  0.50492216  0.89321087  0.99255392    -0.73900
O1100       O  0.88661209  0.99597669  0.99295807    -0.74600
O1101       O  0.60808226  0.98247255  0.99563936    -0.74000
O1102       O  0.87242980  0.89315685  0.99605600    -0.74500
O1103       O  0.92961181  0.85778444  0.04749270    -0.74400
O1104       O  0.91377165  0.93273184  0.06579157    -0.74200
C1105       C  0.96554088  0.58964985  0.06596358     0.77600
C1106       C  0.57263484  0.63862487  0.98521941     0.78100
C1107       C  0.62535161  0.53806270  0.06556974     0.77100
C1108       C  0.56467544  0.92956974  0.98493684     0.77400
C1109       C  0.86266467  0.93614151  0.98542580     0.78600
C1110       C  0.91314054  0.87778792  0.06597630     0.77600
C1111       C  0.62807522  0.61148659  0.26401975    -0.12900
C1112       C  0.62668000  0.56590171  0.24736339     0.09300
C1113       C  0.65623066  0.52750445  0.25279719    -0.12900
C1114       C  0.68222926  0.53103863  0.27525541    -0.12900
C1115       C  0.67754898  0.57193961  0.29261161     0.09300
C1116       C  0.65224911  0.61370473  0.28659174    -0.12900
H1117       H  0.60437772  0.64064235  0.26023728     0.13300
H1118       H  0.65384082  0.49066426  0.24041858     0.13300
H1119       H  0.70396008  0.50022052  0.27933127     0.13300
H1120       H  0.65117736  0.64805564  0.29933613     0.13300
C1121       C  0.98430818  0.87692698  0.26417384    -0.12900
C1122       C  0.93933424  0.87755164  0.24775231     0.09300
C1123       C  0.87118338  0.84731523  0.25349872    -0.12900
C1124       C  0.84920601  0.82090211  0.27597270    -0.12900
C1125       C  0.89548034  0.82587335  0.29305947     0.09300
C1126       C  0.96283871  0.85232152  0.28676984    -0.12900
H1127       H  0.53732755  0.90119693  0.26016107     0.13300
H1128       H  0.83614770  0.84918626  0.24132529     0.13300
H1129       H  0.79643954  0.79839484  0.28025654     0.13300
H1130       H  0.99882230  0.85375486  0.29929524     0.13300
C1131       C  0.88890388  0.54037233  0.28647476    -0.12900
C1132       C  0.93078776  0.60763183  0.29282461     0.09300
C1133       C  0.97260234  0.65402265  0.27576184    -0.12900
C1134       C  0.97675353  0.63217563  0.25324810    -0.12900
C1135       C  0.93803739  0.56406840  0.24746429     0.09300
C1136       C  0.89173187  0.51904502  0.26383767    -0.12900
H1137       H  0.85392922  0.50434220  0.29899827     0.13300
H1138       H  0.00357659  0.70672532  0.28010687     0.13300
H1139       H  0.51417883  0.66721294  0.24109098     0.13300
H1140       H  0.86243328  0.96604993  0.25979344     0.13300
C1141       C  0.94393282  0.79456904  0.11709807    -0.12900
C1142       C  0.89912225  0.79387905  0.13395478     0.09300
C1143       C  0.86144128  0.82435252  0.12876519    -0.12900
C1144       C  0.86482250  0.85055505  0.10635865    -0.12900
C1145       C  0.90483545  0.84518399  0.08880491     0.09300
C1146       C  0.94596102  0.81894864  0.09457175    -0.12900
H1147       H  0.97252697  0.77016174  0.12069245     0.13300
H1148       H  0.82518595  0.82253502  0.14129311     0.13300
H1149       H  0.83451497  0.87297969  0.10247538     0.13300
H1150       H  0.47963601  0.81728833  0.08166776     0.13300
C1151       C  0.71050044  0.65160368  0.11691204    -0.12900
C1152       C  0.71046122  0.60679822  0.13356669     0.09300
C1153       C  0.67950589  0.53843530  0.12808211    -0.12900
C1154       C  0.65308931  0.51601970  0.10563754    -0.12900
C1155       C  0.65877187  0.56203524  0.08832181     0.09300
C1156       C  0.68590277  0.62966630  0.09434383    -0.12900
H1157       H  0.73534652  0.70477865  0.12072508     0.13300
H1158       H  0.68085881  0.50350035  0.14043624     0.13300
H1159       H  0.63004392  0.96306446  0.10155222     0.13300
H1160       H  0.68791314  0.66550166  0.08162928     0.13300
C1161       C  0.87411726  0.55716916  0.09480849    -0.12900
C1162       C  0.94172030  0.59854824  0.08879690     0.09300
C1163       C  0.98773680  0.63940815  0.10612302    -0.12900
C1164       C  0.96525452  0.64325684  0.12856038    -0.12900
C1165       C  0.89686136  0.60512618  0.13400229     0.09300
C1166       C  0.85213602  0.55961471  0.11737156    -0.12900
H1167       H  0.83831277  0.52291771  0.08207254     0.13300
H1168       H  0.04066119  0.66996463  0.10203519     0.13300
H1169       H  0.00010891  0.68008180  0.14091734     0.13300
H1170       H  0.79893973  0.53071876  0.12116677     0.13300
C1171       C  0.90306842  0.59901471  0.18692263    -0.12800
C1172       C  0.93171931  0.57040726  0.19455830    -0.14400
C1173       C  0.63911849  0.57128569  0.19435300    -0.12800
C1174       C  0.69657619  0.59973794  0.18659823    -0.14400
C1175       C  0.90403536  0.80643901  0.18698066    -0.12800
C1176       C  0.93239233  0.86388742  0.19473275    -0.14400
C1177       C  0.81037665  0.95669217  0.92450230    -0.12900
C1178       C  0.78996076  0.89378289  0.91458070     0.09300
C1179       C  0.79643953  0.84610077  0.92769329    -0.12900
C1180       C  0.81670155  0.85848198  0.95111192    -0.12900
C1181       C  0.83228465  0.91963894  0.96176266     0.09300
C1182       C  0.83102205  0.96951306  0.94792862    -0.12900
H1183       H  0.80526859  0.99395575  0.91468135     0.13300
H1184       H  0.78044678  0.79707825  0.92036770     0.13300
H1185       H  0.81976031  0.81990688  0.96087642     0.13300
H1186       H  0.84542953  0.01830369  0.95522729     0.13300
C1187       C  0.64237034  0.68876663  0.92371606    -0.12900
C1188       C  0.59964107  0.70908644  0.91420386     0.09300
C1189       C  0.54591960  0.70257828  0.92770584    -0.12900
C1190       C  0.53919409  0.68304116  0.95116289    -0.12900
C1191       C  0.58537603  0.66804319  0.96144206     0.09300
C1192       C  0.63569511  0.66882994  0.94719114    -0.12900
H1193       H  0.68431599  0.69374490  0.91355542     0.13300
H1194       H  0.51262511  0.71834456  0.92067437     0.13300
H1195       H  0.49803275  0.68018928  0.96125537     0.13300
H1196       H  0.67037455  0.65469746  0.95420532     0.13300
C1197       C  0.65356290  0.95473567  0.92692294    -0.12900
C1198       C  0.60587444  0.89976552  0.91389716     0.09300
C1199       C  0.54299845  0.85678635  0.92385052    -0.12900
C1200       C  0.53050611  0.86450091  0.94732455    -0.12900
C1201       C  0.58062525  0.91612837  0.96113171     0.09300
C1202       C  0.64150490  0.96253369  0.95038523    -0.12900
H1203       H  0.70249796  0.98825215  0.91953284     0.13300
H1204       H  0.50566165  0.81392247  0.91404899     0.13300
H1205       H  0.48185971  0.82955536  0.95469578     0.13300
H1206       H  0.68017762  0.00465800  0.96012230     0.13300
C1207       C  0.56967249  0.93256169  0.85334097    -0.12800
C1208       C  0.59844074  0.90411038  0.86099671    -0.14400
C1209       C  0.59602294  0.69592384  0.86122112    -0.12800
C1210       C  0.56782490  0.63847678  0.85345367    -0.14400
C1211       C  0.80421441  0.90181703  0.86157413    -0.12800
C1212       C  0.86166481  0.93033634  0.85381114    -0.14400
C1213       C  0.83392156  0.96974386  0.76752461    -0.12900
C1214       C  0.83251057  0.91850981  0.75362497     0.09300
C1215       C  0.84658142  0.87215863  0.76431264    -0.12900
C1216       C  0.86629997  0.87983035  0.78777358    -0.12900
C1217       C  0.87386017  0.93462108  0.80086078     0.09300
C1218       C  0.85410081  0.97740395  0.79099494    -0.12900
H1219       H  0.82033666  0.00452406  0.76021405     0.13300
H1220       H  0.84308385  0.83026439  0.75451413     0.13300
H1221       H  0.88154215  0.84643497  0.79510362     0.13300
H1222       H  0.86003528  0.52034148  0.80079804     0.13300
C1223       C  0.52471838  0.65262641  0.76412789    -0.12900
C1224       C  0.58541129  0.66733509  0.75330569     0.09300
C1225       C  0.63533632  0.66579474  0.76702284    -0.12900
C1226       C  0.62273669  0.64515441  0.79045319    -0.12900
C1227       C  0.56001759  0.62509240  0.80048069     0.09300
C1228       C  0.51256220  0.63237528  0.78754562    -0.12900
H1229       H  0.48621971  0.65611082  0.75447277     0.13300
H1230       H  0.68389111  0.67975664  0.75961005     0.13300
H1231       H  0.65990223  0.63961924  0.80016608     0.13300
H1232       H  0.96374633  0.61680466  0.79497970     0.13300
C1233       C  0.52963453  0.86464380  0.76703967    -0.12900
C1234       C  0.58169445  0.91472479  0.75335631     0.09300
C1235       C  0.62784107  0.97557821  0.76417729    -0.12900
C1236       C  0.61936687  0.98769887  0.78756408    -0.12900
C1237       C  0.56407284  0.94004781  0.80045895     0.09300
C1238       C  0.52118181  0.87722745  0.79043474    -0.12900
H1239       H  0.49489159  0.81598759  0.75962473     0.13300
H1240       H  0.67025465  0.01421712  0.75454597     0.13300
H1241       H  0.65288903  0.53639115  0.79506934     0.13300
H1242       H  0.97803571  0.83992805  0.80012081     0.13300
C1243       C  0.78921958  0.81667366  0.45598354    -0.12900
C1244       C  0.72975221  0.77080601  0.46739041     0.09300
C1245       C  0.68386631  0.71188229  0.45572784    -0.12900
C1246       C  0.69371926  0.70227172  0.43219252    -0.12900
C1247       C  0.75064716  0.75102033  0.42000909     0.09300
C1248       C  0.79943219  0.80732931  0.43243912    -0.12900
H1249       H  0.82525198  0.86241253  0.46476491     0.13300
H1250       H  0.63770843  0.67589532  0.46429343     0.13300
H1251       H  0.65646431  0.65677801  0.42353773     0.13300
H1252       H  0.84539756  0.84440255  0.42398249     0.13300
C1253       C  0.52837635  0.71100076  0.45573761    -0.12900
C1254       C  0.54178666  0.76984534  0.46744693     0.09300
C1255       C  0.52861874  0.81563920  0.45608061    -0.12900
C1256       C  0.50926951  0.80640476  0.43253842    -0.12900
C1257       C  0.00130473  0.75016774  0.42005896     0.09300
C1258       C  0.00893307  0.70140505  0.43219392    -0.12900
H1259       H  0.53817953  0.67504159  0.46428163     0.13300
H1260       H  0.53863879  0.86131664  0.46488300     0.13300
H1261       H  0.50093119  0.84358043  0.42411329     0.13300
H1262       H  0.00021714  0.65592941  0.42350545     0.13300
C1263       C  0.68356205  0.97110889  0.45579133    -0.12900
C1264       C  0.72935589  0.95781027  0.46712975     0.09300
C1265       C  0.78798263  0.97092460  0.45535367    -0.12900
C1266       C  0.79751564  0.99046993  0.43183543    -0.12900
C1267       C  0.74894403  0.49861994  0.41974864     0.09300
C1268       C  0.69285613  0.49080744  0.43227412    -0.12900
H1269       H  0.63799410  0.96124615  0.46463398     0.13300
H1270       H  0.82384387  0.96084885  0.46382814     0.13300
H1271       H  0.84284061  0.99886294  0.42312002     0.13300
H1272       H  0.65593664  0.49965203  0.42390955     0.13300
C1273       C  0.80661375  0.79699488  0.58590141    -0.12900
C1274       C  0.76940610  0.72831163  0.58082019     0.09300
C1275       C  0.72497919  0.68381410  0.59773902    -0.12900
C1276       C  0.72299272  0.70640603  0.62024040    -0.12900
C1277       C  0.76360534  0.77437817  0.62590448     0.09300
C1278       C  0.80313073  0.82006220  0.60827997    -0.12900
H1279       H  0.84256655  0.83175126  0.57331130     0.13300
H1280       H  0.69674316  0.63043213  0.59421537     0.13300
H1281       H  0.68969798  0.67076305  0.63320295     0.13300
H1282       H  0.83300800  0.87322554  0.61208731     0.13300
C1283       C  0.98977336  0.69440898  0.58598260    -0.12900
C1284       C  0.95815463  0.73113891  0.58102107     0.09300
C1285       C  0.95782138  0.77501044  0.59805661    -0.12900
C1286       C  0.98241617  0.77700675  0.62052751    -0.12900
C1287       C  0.51001303  0.73693377  0.62605499     0.09300
C1288       C  0.51629679  0.69787414  0.60833702    -0.12900
H1289       H  0.98873577  0.65884760  0.57330502     0.13300
H1290       H  0.93250263  0.80282449  0.59463133     0.13300
H1291       H  0.97995025  0.80993104  0.63356657     0.13300
H1292       H  0.53973376  0.66839574  0.61204312     0.13300
C1293       C  0.70335669  0.51077579  0.58636697    -0.12900
C1294       C  0.77174612  0.54199319  0.58091075     0.09300
C1295       C  0.81665977  0.54240875  0.59760517    -0.12900
C1296       C  0.79483160  0.51827086  0.62021736    -0.12900
C1297       C  0.72718758  0.99104107  0.62622924     0.09300
C1298       C  0.68104176  0.48473167  0.60885304    -0.12900
H1299       H  0.66833096  0.51180626  0.57397232     0.13300
H1300       H  0.86985986  0.56746736  0.59380794     0.13300
H1301       H  0.83077226  0.02074133  0.63299530     0.13300
H1302       H  0.62808653  0.46157392  0.61292802     0.13300
C1303       C  0.76426721  0.73552853  0.52788780    -0.12800
C1304       C  0.73588193  0.76438856  0.52026527    -0.14400
C1305       C  0.76489060  0.52894369  0.52787345    -0.12800
C1306       C  0.73627732  0.97148984  0.52012538    -0.14400
C1307       C  0.97154285  0.73639743  0.52804871    -0.12800
C1308       C  0.52905224  0.76457630  0.52036307    -0.14400
loop_ 
_geom_bond_atom_site_label_1 
_geom_bond_atom_site_label_2 
_geom_bond_distance 
_geom_bond_site_symmetry_2 
_ccdc_geom_bond_type 
C1            H2   1.114       .  S
C1            C7   1.507       .  S
C1            C6   1.507       .  S
C1            C5   1.507       .  S
C3            H4   1.110       .  S
C3            C9   1.585       .  S
C3            C8   1.585       .  S
C3           C10   1.586       .  S
C5            C8   1.365       .  D
C5          C303   1.467       .  S
C6            C9   1.366       .  D
C6          C313   1.467       .  S
C7           C10   1.365       .  D
C7          C293   1.467       .  S
C8          C326   1.476       .  S
C9          C324   1.476       .  S
C10         C322   1.476       .  S
C11          H12   1.110       .  S
C11          C17   1.586       .  S
C11          C16   1.585       .  S
C11          C15   1.585       .  S
C13          H14   1.116       .  S
C13          C19   1.508       .  S
C13          C18   1.508       .  S
C13          C20   1.507       .  S
C15          C18   1.365       .  D
C15         C327   1.476       .  S
C16          C19   1.365       .  D
C16         C325   1.476       .  S
C17          C20   1.365       .  D
C17         C323   1.476       .  S
C18         C273   1.465       .  S
C19         C283   1.466       .  S
C20         C263   1.465       .  S
Zn21         O25   1.815       .  S
Zn21         O26   1.950       .  S
Zn21         O30   1.950       .  S
Zn21         O37   1.949       .  S
Zn22         O25   1.880       .  S
Zn22         O27   1.995       .  S
Zn22         O29   2.062       .  S
Zn22         O33   1.990       .  S
Zn23         O25   1.879       .  S
Zn23         O28   2.063       .  S
Zn23         O31   1.992       .  S
Zn23         O34   1.995       .  S
Zn24         O25   1.880       .  S
Zn24         O32   1.991       .  S
Zn24         O35   1.995       .  S
Zn24         O36   2.065       .  S
O26          C38   1.261       .  A
O27          C39   1.277       .  A
O28          C40   1.280       .  A
O29          C38   1.280       .  A
O30          C40   1.262       .  A
O31          C39   1.275       .  A
O32          C41   1.275       .  A
O33          C42   1.275       .  A
O34          C41   1.276       .  A
O35          C42   1.277       .  A
O36          C43   1.280       .  A
O37          C43   1.261       .  A
C38         C306   1.465       .  S
C39         C243   1.477       .  S
C40         C296   1.465       .  S
C41         C233   1.477       .  S
C42         C253   1.477       .  S
C43         C316   1.465       .  S
C44          H45   1.116       .  S
C44          C50   1.508   1_665  S
C44         C376   1.508   1_655  S
C44        C1029   1.508       .  S
C46          H47   1.110   1_655  S
C46          C53   1.585   1_655  S
C46         C379   1.586   1_645  S
C46        C1032   1.585   1_545  S
C48        C1025   1.509       .  S
C48          C51   1.365       .  D
C48         C236   1.465       .  S
C49         C371   1.508   1_455  S
C49          C52   1.365       .  D
C49         C256   1.466       .  S
C50          C53   1.365       .  D
C50         C246   1.466       .  S
C51        C1027   1.585       .  S
C51         C231   1.476       .  S
C52         C373   1.586   1_455  S
C52         C226   1.477       .  S
C53         C229   1.476       .  S
C54          H55   1.110       .  S
C54          C60   1.586       .  S
C54          C59   1.585       .  S
C54          C58   1.586       .  S
C56          H57   1.116       .  S
C56          C62   1.508       .  S
C56          C61   1.507       .  S
C56          C63   1.508       .  S
C58          C61   1.364       .  D
C58         C227   1.477       .  S
C59          C62   1.365       .  D
C59         C228   1.476       .  S
C60          C63   1.366       .  D
C60         C230   1.476       .  S
C61         C217   1.465       .  S
C62         C207   1.465       .  S
C63         C197   1.466       .  S
C64          H65   1.115       .  S
C64          C70   1.507       .  S
C64          C69   1.507       .  S
C64          C68   1.507       .  S
C66          H67   1.110       .  S
C66          C72   1.586       .  S
C66          C71   1.585       .  S
C66          C73   1.585       .  S
C68          C71   1.366       .  D
C68         C171   1.467       .  S
C69          C72   1.365       .  D
C69         C184   1.466       .  S
C70          C73   1.366       .  D
C70         C161   1.467       .  S
C71         C193   1.476       .  S
C72         C190   1.477       .  S
C73         C194   1.476       .  S
C74          H75   1.110       .  S
C74         C407   1.585       .  S
C74         C733   1.585   1_455  S
C74        C1059   1.586   1_455  S
C76         H404   1.115       .  S
C76         C736   1.507   1_455  S
C76        C1062   1.507   1_455  S
C76         C410   1.507       .  S
H77         C403   1.115       .  S
C78        C1055   1.586       .  S
C78          C81   1.365       .  D
C78         C191   1.477       .  S
C79         C728   1.585       .  S
C79          C82   1.366       .  D
C79         C195   1.476       .  S
C80         C401   1.585       .  S
C80          C83   1.366       .  D
C80         C192   1.476       .  S
C81        C1057   1.507       .  S
C81         C154   1.465       .  S
C82         C730   1.507       .  S
C82         C141   1.467       .  S
C83         C403   1.507       .  S
C83         C131   1.467       .  S
Zn84         O88   1.880       .  S
Zn84         O89   2.062       .  S
Zn84         O93   1.990       .  S
Zn84        O100   1.996       .  S
Zn85         O88   1.814       .  S
Zn85         O90   1.950       .  S
Zn85         O92   1.949       .  S
Zn85         O96   1.950       .  S
Zn86         O88   1.880       .  S
Zn86         O91   2.001       .  S
Zn86         O94   2.065       .  S
Zn86         O97   1.990       .  S
Zn87         O88   1.881       .  S
Zn87         O95   1.997       .  S
Zn87         O98   2.067       .  S
Zn87         O99   1.992       .  S
O89         C101   1.280       .  A
O90         C102   1.262       .  A
O91         C103   1.277       .  A
O92         C101   1.261       .  A
O93         C103   1.275       .  A
O94         C102   1.280       .  A
O95         C104   1.276       .  A
O96         C105   1.261       .  A
O97         C104   1.275       .  A
O98         C105   1.280       .  A
O99         C106   1.275       .  A
O100        C106   1.276       .  A
C101        C151   1.464       .  S
C102        C134   1.466       .  S
C103        C286   1.477   1_545  S
C104        C266   1.477       .  S
C105        C144   1.466       .  S
C106        C276   1.477       .  S
Zn107       O111   1.815       .  S
Zn107       O116   1.950   1_545  S
Zn107       O766   1.950       .  S
Zn107      O1104   1.950   1_445  S
Zn108       O765   1.879       .  S
Zn108       O115   2.061       .  S
Zn108       O767   1.994   1_554  S
Zn108       O446   1.992   1_544  S
Zn109       O111   1.880       .  S
Zn109       O114   2.066       .  S
Zn109       O117   1.992   1_554  S
Zn109       O447   1.997   1_544  S
Zn110      O1092   1.880       .  S
Zn110       O121   1.999   1_554  S
Zn110       O122   2.066       .  S
Zn110       O772   1.992   1_554  S
O111       Zn762   1.879   1_455  S
O111      Zn1091   1.880   1_445  S
O112       Zn761   1.950       .  S
O112        C124   1.262       .  A
O113       Zn762   1.994   1_456  S
O113        C125   1.277       .  A
O114        C126   1.280       .  A
O115        C124   1.280       .  A
O116        C126   1.261   1_565  A
O117        C125   1.275       .  A
O118       Zn764   1.992   1_456  S
O118        C127   1.275       .  A
O119       Zn435   1.992   1_556  S
O119        C128   1.275       .  A
O120       Zn436   1.997   1_556  S
O120        C127   1.277       .  A
O121        C128   1.277       .  A
O122        C129   1.280       .  A
O123      Zn1088   1.950       .  S
O123        C129   1.261       .  A
C124        C181   1.464       .  S
C125        C210   1.476       .  S
C126        C174   1.466       .  S
C127        C220   1.477       .  S
C128        C200   1.477       .  S
C129        C164   1.466       .  S
C130        C131   1.404       .  A
C130        C135   1.392       .  A
C130        H136   1.083       .  S
C131        C132   1.400       .  A
C132        C133   1.398       .  A
C132        H137   1.083   1_545  S
C133        C134   1.407       .  A
C133        H138   1.083       .  S
C134        C135   1.400       .  A
C135        H139   1.083       .  S
C140        C141   1.404       .  A
C140        C145   1.392       .  A
C140        H800   1.082       .  S
C141        C142   1.400       .  A
C142        C143   1.398       .  A
C142        H147   1.083       .  S
C143        C144   1.407       .  A
C143        H148   1.083       .  S
C144        C145   1.400       .  A
C145        H149   1.083       .  S
H146        C794   1.082   1_455  S
C150        C151   1.400       .  A
C150        C155   1.392       .  A
C150        H156   1.083       .  S
C151        C152   1.407       .  A
C152        C153   1.397       .  A
C152        H157   1.083       .  S
C153        C154   1.400       .  A
C153        H812   1.083       .  S
C154        C155   1.403       .  A
C155        H486   1.083   1_545  S
H158        C807   1.083   1_455  S
H159        C482   1.083       .  S
C160        C161   1.404       .  A
C160        C165   1.392       .  A
C160        H166   1.083       .  S
C161        C162   1.400       .  A
C162        C163   1.398       .  A
C162        H167   1.083       .  S
C163        C164   1.407       .  A
C163        H168   1.083       .  S
C164        C165   1.400       .  A
C165        H823   1.083       .  S
H169        C819   1.083       .  S
C170        C171   1.404       .  A
C170        C175   1.392       .  A
C170        H176   1.082       .  S
C171        C172   1.400       .  A
C172        C173   1.398       .  A
C172        H177   1.083       .  S
C173        C174   1.407       .  A
C173        H505   1.083   1_545  S
C174        C175   1.400       .  A
C175        H179   1.083       .  S
H178        C500   1.083       .  S
C180        C181   1.400       .  A
C180        C185   1.392       .  A
C180        H186   1.083       .  S
C181        C182   1.407       .  A
C182        C183   1.397       .  A
C182        H187   1.083       .  S
C183        C184   1.400       .  A
C183        H188   1.083       .  S
C184        C185   1.404       .  A
C185        H189   1.083       .  S
C190        C191   1.227       .  T
C192        C193   1.227       .  T
C194        C195   1.227       .  T
C196        C197   1.399       .  A
C196        C201   1.397       .  A
C196        H202   1.082       .  S
C197        C198   1.400       .  A
C198        C199   1.394       .  A
C198        H203   1.081       .  S
C199        C200   1.405       .  A
C199        H204   1.083       .  S
C200        C201   1.409       .  A
C201        H205   1.083       .  S
C206        C207   1.399       .  A
C206        C211   1.397       .  A
C206        H212   1.082       .  S
C207        C208   1.400       .  A
C208        C209   1.393       .  A
C208        H213   1.081       .  S
C209        C210   1.405       .  A
C209        H214   1.083   1_455  S
C210        C211   1.408       .  A
C211        H215   1.083       .  S
C216        C217   1.400       .  A
C216        C221   1.393       .  A
C216        H222   1.081       .  S
C217        C218   1.399       .  A
C218        C219   1.396       .  A
C218        H223   1.082       .  S
C219        C220   1.408       .  A
C219        H224   1.083   1_455  S
C220        C221   1.406       .  A
C221        H225   1.083       .  S
C226        C227   1.227       .  T
C228        C229   1.227       .  T
C230        C231   1.227       .  T
C232        C233   1.409       .  A
C232        C237   1.397       .  A
C232        H238   1.083       .  S
C233        C234   1.406       .  A
C234        C235   1.393       .  A
C234        H239   1.083       .  S
C235        C236   1.400       .  A
C235        H240   1.081       .  S
C236        C237   1.399       .  A
C237        H568   1.082       .  S
H241        C564   1.082   1_545  S
C242        C243   1.406       .  A
C242        C247   1.394       .  A
C242        H248   1.083   1_455  S
C243        C244   1.409       .  A
C244        C245   1.397       .  A
C244        H249   1.083       .  S
C245        C246   1.399       .  A
C245        H250   1.082       .  S
C246        C247   1.400       .  A
C247        H905   1.081   1_455  S
H251        C901   1.081       .  S
C252        C253   1.409       .  A
C252        C257   1.397       .  A
C252        H258   1.083   1_455  S
C253        C254   1.405       .  A
C254        C255   1.393       .  A
C254        H259   1.083       .  S
C255        C256   1.400       .  A
C255        H587   1.081       .  S
C256        C257   1.399       .  A
C257        H915   1.082   1_455  S
H260        C582   1.081   1_545  S
H261        C911   1.082       .  S
C262        C263   1.400       .  A
C262        C267   1.395       .  A
C262        H268   1.081       .  S
C263        C264   1.399       .  A
C264        C265   1.394       .  A
C264        H269   1.081       .  S
C265        C266   1.407       .  A
C265        H270   1.083       .  S
C266        C267   1.407       .  A
C267        H271   1.083       .  S
C272        C273   1.399       .  A
C272        C931   1.395       .  A
C272        H278   1.081       .  S
C273        C274   1.399       .  A
C274        C275   1.395       .  A
C274        H279   1.081       .  S
C275        C930   1.407       .  A
C275        H280   1.083       .  S
C276        C277   1.407       .  A
C276        C929   1.407       .  A
C277        C926   1.395       .  A
C277        H281   1.083       .  S
C282        C283   1.400       .  A
C282        C614   1.396       .  A
C282        H288   1.081       .  S
C283        C284   1.399       .  A
C284        C285   1.395       .  A
C284        H289   1.081       .  S
C285        C613   1.407       .  A
C285        H290   1.083       .  S
C286        C287   1.407       .  A
C286        C612   1.407       .  A
C287        C609   1.396       .  A
C287        H291   1.083       .  S
C292        C293   1.400       .  A
C292        C297   1.398       .  A
C292        H298   1.083       .  S
C293        C294   1.404       .  A
C294        C295   1.391       .  A
C294        H299   1.083       .  S
C295        C296   1.400       .  A
C295        H300   1.083       .  S
C296        C297   1.407       .  A
C297        H301   1.083       .  S
C302        C303   1.400       .  A
C302        C961   1.398       .  A
C302        H308   1.083       .  S
C303        C304   1.404       .  A
C304        C305   1.391       .  A
C304        H309   1.083       .  S
C305        C960   1.400       .  A
C305        H310   1.083       .  S
C306        C307   1.407       .  A
C306        C959   1.400   1_455  A
C307        C956   1.398   1_455  A
C307        H311   1.083       .  S
C312        C313   1.400       .  A
C312        C317   1.397   1_545  A
C312        H318   1.083       .  S
C313        C314   1.404       .  A
C314        C315   1.392       .  A
C314        H319   1.083       .  S
C315        C643   1.399   1_545  A
C315        H647   1.083       .  S
C316        C642   1.399       .  A
C316        C644   1.407       .  A
C317        C643   1.407       .  A
C317        H321   1.083       .  S
H320        C642   1.083       .  S
C322        C323   1.227       .  T
C324        C652   1.227   1_545  T
C325        C651   1.227       .  T
C326        C981   1.226       .  T
C327        C980   1.226   1_455  T
C328        H329   1.114       .  S
C328        C334   1.507       .  S
C328        C333   1.507       .  S
C328        C332   1.507       .  S
C330        H331   1.110       .  S
C330        C336   1.585       .  S
C330        C335   1.585       .  S
C330        C337   1.586       .  S
C332        C335   1.365       .  D
C332        C630   1.467       .  S
C333        C336   1.366       .  D
C333        C640   1.467       .  S
C334        C337   1.365       .  D
C334        C620   1.467       .  S
C335        C653   1.476       .  S
C336        C651   1.476       .  S
C337        C649   1.476       .  S
C338        H339   1.110       .  S
C338        C344   1.586       .  S
C338        C343   1.585       .  S
C338        C342   1.585       .  S
C340        H341   1.116       .  S
C340        C346   1.508       .  S
C340        C345   1.508       .  S
C340        C347   1.507       .  S
C342        C345   1.365       .  D
C342        C654   1.476       .  S
C343        C346   1.365       .  D
C343        C652   1.476       .  S
C344        C347   1.365       .  D
C344        C650   1.476       .  S
C345        C600   1.465       .  S
C346        C610   1.466       .  S
C347        C590   1.465       .  S
Zn348       O352   1.815       .  S
Zn348       O353   1.950       .  S
Zn348       O357   1.950       .  S
Zn348       O364   1.950       .  S
Zn349       O352   1.880       .  S
Zn349       O354   1.995       .  S
Zn349       O356   2.062       .  S
Zn349       O360   1.990       .  S
Zn350       O352   1.879       .  S
Zn350       O355   2.063       .  S
Zn350       O358   1.992       .  S
Zn350       O361   1.995       .  S
Zn351       O352   1.880       .  S
Zn351       O359   1.991       .  S
Zn351       O362   1.995       .  S
Zn351       O363   2.065       .  S
O353        C365   1.261       .  A
O354        C366   1.277       .  A
O355        C367   1.280       .  A
O356        C365   1.280       .  A
O357        C367   1.262       .  A
O358        C366   1.275       .  A
O359        C368   1.275       .  A
O360        C369   1.275       .  A
O361        C368   1.277       .  A
O362        C369   1.277       .  A
O363        C370   1.280       .  A
O364        C370   1.261       .  A
C365        C633   1.465       .  S
C366        C570   1.477       .  S
C367        C623   1.465       .  S
C368        C560   1.477       .  S
C369        C580   1.477       .  S
C370        C643   1.465       .  S
C371        H372   1.116       .  S
C371        C377   1.508   1_655  S
C371        C702   1.509       .  S
C373        H374   1.110   1_655  S
C373        C705   1.585       .  S
C373        C380   1.585   1_655  S
C375        C698   1.508       .  S
C375        C378   1.365       .  D
C375        C563   1.465       .  S
C376        C379   1.365       .  D
C376        C583   1.466       .  S
C377        C380   1.365       .  D
C377        C573   1.466       .  S
C378        C700   1.585   1_565  S
C378        C558   1.476       .  S
C379        C553   1.477       .  S
C380        C556   1.476       .  S
C381        H382   1.110       .  S
C381        C387   1.586       .  S
C381        C386   1.585       .  S
C381        C385   1.586       .  S
C383        H384   1.116       .  S
C383        C389   1.508       .  S
C383        C388   1.507       .  S
C383        C390   1.508       .  S
C385        C388   1.364       .  D
C385        C554   1.477       .  S
C386        C389   1.365       .  D
C386        C555   1.476       .  S
C387        C390   1.366       .  D
C387        C557   1.476       .  S
C388        C544   1.465       .  S
C389        C534   1.465       .  S
C390        C524   1.466       .  S
C391        H392   1.115       .  S
C391        C397   1.507       .  S
C391        C396   1.507       .  S
C391        C395   1.507       .  S
C393        H394   1.110       .  S
C393        C399   1.586       .  S
C393        C398   1.585       .  S
C393        C400   1.585       .  S
C395        C398   1.366       .  D
C395        C498   1.467       .  S
C396        C399   1.365       .  D
C396        C511   1.466       .  S
C397        C400   1.366       .  D
C397        C488   1.467       .  S
C398        C520   1.476       .  S
C399        C517   1.477       .  S
C400        C521   1.476       .  S
C401        H402   1.110       .  S
C401       C1060   1.585   1_445  S
C401        C732   1.586   1_455  S
C403       C1063   1.507   1_445  S
C403        C735   1.507   1_455  S
C405        C728   1.586       .  S
C405        C408   1.365       .  D
C405        C518   1.477       .  S
C406       C1055   1.585   1_565  S
C406        C409   1.366       .  D
C406        C522   1.476       .  S
C407        C410   1.366       .  D
C407        C519   1.476       .  S
C408        C730   1.507       .  S
C408        C481   1.465       .  S
C409       C1057   1.507   1_565  S
C409        C468   1.467       .  S
C410        C458   1.467       .  S
Zn411       O415   1.880       .  S
Zn411       O416   2.062       .  S
Zn411       O420   1.990       .  S
Zn411       O427   1.996       .  S
Zn412       O415   1.814       .  S
Zn412       O417   1.950       .  S
Zn412       O419   1.949       .  S
Zn412       O423   1.950       .  S
Zn413       O415   1.880       .  S
Zn413       O418   2.001       .  S
Zn413       O421   2.065       .  S
Zn413       O424   1.990       .  S
Zn414       O415   1.881       .  S
Zn414       O422   1.997       .  S
Zn414       O425   2.067       .  S
Zn414       O426   1.992       .  S
O416        C428   1.280       .  A
O417        C429   1.262       .  A
O418        C430   1.277       .  A
O419        C428   1.261       .  A
O420        C430   1.275       .  A
O421        C429   1.280       .  A
O422        C431   1.276       .  A
O423        C432   1.261       .  A
O424        C431   1.275       .  A
O425        C432   1.280       .  A
O426        C433   1.275       .  A
O427        C433   1.276       .  A
C428        C478   1.464       .  S
C429        C461   1.466       .  S
C430        C613   1.477       .  S
C431        C593   1.477       .  S
C432        C471   1.466       .  S
C433        C603   1.477       .  S
Zn434       O438   1.815       .  S
Zn434      O1093   1.950       .  S
Zn434       O443   1.950       .  S
Zn434       O777   1.950   1_455  S
Zn435      O1092   1.879       .  S
Zn435      O1094   1.994   1_554  S
Zn435       O442   2.061       .  S
Zn436       O438   1.881       .  S
Zn436       O441   2.066       .  S
Zn436       O444   1.992   1_554  S
Zn437       O765   1.880   1_565  S
Zn437      O1099   1.992   1_554  S
Zn437       O448   1.999   1_554  S
Zn437       O449   2.066       .  S
O438      Zn1089   1.879   1_455  S
O438       Zn764   1.880   1_455  S
O439      Zn1088   1.950       .  S
O439        C451   1.262       .  A
O440      Zn1089   1.994   1_456  S
O440        C452   1.277       .  A
O441        C453   1.280       .  A
O442        C451   1.280       .  A
O443        C453   1.261       .  A
O444        C452   1.275       .  A
O445      Zn1091   1.992   1_456  S
O445        C454   1.275       .  A
O446        C455   1.275       .  A
O447        C454   1.277       .  A
O448        C455   1.277       .  A
O449        C456   1.280       .  A
O450       Zn761   1.950   1_565  S
O450        C456   1.261       .  A
C451        C508   1.464       .  S
C452        C537   1.476       .  S
C453        C501   1.466       .  S
C454        C547   1.477       .  S
C455        C527   1.477       .  S
C456        C491   1.466       .  S
C457        C458   1.404       .  A
C457        C462   1.392       .  A
C457        H463   1.083       .  S
C458        C459   1.400       .  A
C459        C460   1.398       .  A
C459        H464   1.083       .  S
C460        C461   1.407       .  A
C460        H465   1.083       .  S
C461        C462   1.400       .  A
C462        H466   1.083       .  S
C467        C468   1.404       .  A
C467        C472   1.392       .  A
C467       H1127   1.082       .  S
C468        C469   1.400       .  A
C469        C470   1.398       .  A
C469        H474   1.083       .  S
C470        C471   1.407       .  A
C470        H475   1.083       .  S
C471        C472   1.400       .  A
C472        H476   1.083       .  S
H473       C1121   1.082   1_455  S
C477        C478   1.400       .  A
C477        C482   1.392       .  A
C477        H483   1.083       .  S
C478        C479   1.407       .  A
C479        C480   1.397       .  A
C479        H484   1.083       .  S
C480        C481   1.400       .  A
C480       H1139   1.083       .  S
C481        C482   1.403       .  A
H485       C1134   1.083   1_455  S
C487        C488   1.404       .  A
C487        C492   1.392       .  A
C487        H493   1.083       .  S
C488        C489   1.400       .  A
C489        C490   1.398       .  A
C489        H494   1.083       .  S
C490        C491   1.407       .  A
C490        H495   1.083       .  S
C491        C492   1.400       .  A
C492       H1150   1.083       .  S
H496       C1146   1.083       .  S
C497        C498   1.404       .  A
C497        C502   1.392       .  A
C497        H503   1.082       .  S
C498        C499   1.400       .  A
C499        C500   1.398       .  A
C499        H504   1.083       .  S
C500        C501   1.407       .  A
C501        C502   1.400       .  A
C502        H506   1.083       .  S
C507        C508   1.400       .  A
C507        C512   1.392       .  A
C507        H513   1.083       .  S
C508        C509   1.407       .  A
C509        C510   1.397       .  A
C509        H514   1.083       .  S
C510        C511   1.400       .  A
C510        H515   1.083       .  S
C511        C512   1.404       .  A
C512        H516   1.083       .  S
C517        C518   1.227       .  T
C519        C520   1.227       .  T
C521        C522   1.227       .  T
C523        C524   1.399       .  A
C523        C528   1.397       .  A
C523        H529   1.082       .  S
C524        C525   1.400       .  A
C525        C526   1.394       .  A
C525        H530   1.081       .  S
C526        C527   1.406       .  A
C526        H531   1.083       .  S
C527        C528   1.409       .  A
C528        H532   1.083   1_565  S
C533        C534   1.399       .  A
C533        C538   1.397       .  A
C533        H539   1.082       .  S
C534        C535   1.400       .  A
C535        C536   1.393       .  A
C535        H540   1.081       .  S
C536        C537   1.405       .  A
C536        H541   1.083   1_455  S
C537        C538   1.408       .  A
C538        H542   1.083       .  S
C543        C544   1.400       .  A
C543        C548   1.394       .  A
C543        H549   1.081       .  S
C544        C545   1.399       .  A
C545        C546   1.396       .  A
C545        H550   1.082       .  S
C546        C547   1.408       .  A
C546        H551   1.083   1_455  S
C547        C548   1.406       .  A
C548        H552   1.083   1_565  S
C553        C554   1.227       .  T
C555        C556   1.227       .  T
C557        C558   1.227       .  T
C559        C560   1.409       .  A
C559        C564   1.397       .  A
C559        H565   1.083   1_565  S
C560        C561   1.405       .  A
C561        C562   1.393       .  A
C561        H566   1.083       .  S
C562        C563   1.400       .  A
C562        H567   1.081       .  S
C563        C564   1.399       .  A
C569        C570   1.406       .  A
C569        C574   1.394       .  A
C569        H575   1.083   1_455  S
C570        C571   1.409       .  A
C571        C572   1.397       .  A
C571        H576   1.083       .  S
C572        C573   1.399       .  A
C572        H577   1.082       .  S
C573        C574   1.400       .  A
C574       H1232   1.081   1_455  S
H578       C1228   1.081       .  S
C579        C580   1.409       .  A
C579        C584   1.397       .  A
C579        H585   1.083   1_455  S
C580        C581   1.405       .  A
C581        C582   1.393       .  A
C581        H586   1.083   1_565  S
C582        C583   1.400       .  A
C583        C584   1.399       .  A
C584       H1242   1.082   1_455  S
H588       C1238   1.082       .  S
C589        C590   1.400       .  A
C589        C594   1.395       .  A
C589        H595   1.081       .  S
C590        C591   1.399       .  A
C591        C592   1.394       .  A
C591        H596   1.081       .  S
C592        C593   1.407       .  A
C592        H597   1.083       .  S
C593        C594   1.407       .  A
C594        H598   1.083       .  S
C599        C600   1.400       .  A
C599       C1258   1.395       .  A
C599        H605   1.081       .  S
C600        C601   1.399       .  A
C601        C602   1.395       .  A
C601        H606   1.081       .  S
C602       C1257   1.407       .  A
C602        H607   1.083       .  S
C603       C1256   1.407       .  A
C603        C604   1.407       .  A
C604       C1253   1.395       .  A
C604        H608   1.083       .  S
C609        C610   1.400       .  A
C609        H615   1.081       .  S
C610        C611   1.399       .  A
C611        C612   1.395       .  A
C611        H616   1.081       .  S
C612        H617   1.083       .  S
C613        C614   1.407       .  A
C614        H618   1.083       .  S
C619        C620   1.400       .  A
C619        C624   1.398       .  A
C619        H625   1.083       .  S
C620        C621   1.404       .  A
C621        C622   1.391       .  A
C621        H626   1.083       .  S
C622        C623   1.400       .  A
C622        H627   1.083       .  S
C623        C624   1.407       .  A
C624        H628   1.083       .  S
C629        C630   1.400       .  A
C629       C1288   1.398       .  A
C629        H635   1.083       .  S
C630        C631   1.404       .  A
C631        C632   1.391       .  A
C631        H636   1.083       .  S
C632       C1287   1.400       .  A
C632        H637   1.083       .  S
C633       C1286   1.400   1_455  A
C633        C634   1.407       .  A
C634       C1283   1.398   1_455  A
C634        H638   1.083       .  S
C639        C640   1.400       .  A
C639        C644   1.397       .  A
C639        H645   1.083       .  S
C640        C641   1.404       .  A
C641        C642   1.392       .  A
C641        H646   1.083       .  S
C644        H648   1.083       .  S
C649        C650   1.227       .  T
C653       C1308   1.226       .  T
C654       C1307   1.226   1_455  T
C655        H656   1.114       .  S
C655        C661   1.507       .  S
C655        C660   1.507       .  S
C655        C659   1.507       .  S
C657        H658   1.110       .  S
C657        C663   1.585       .  S
C657        C662   1.585       .  S
C657        C664   1.586       .  S
C659        C662   1.365       .  D
C659        C957   1.467       .  S
C660        C663   1.366       .  D
C660        C967   1.467       .  S
C661        C664   1.365       .  D
C661        C947   1.467       .  S
C662        C980   1.476       .  S
C663        C978   1.476       .  S
C664        C976   1.476       .  S
C665        H666   1.110       .  S
C665        C671   1.586       .  S
C665        C670   1.585       .  S
C665        C669   1.585       .  S
C667        H668   1.116       .  S
C667        C673   1.508       .  S
C667        C672   1.508       .  S
C667        C674   1.507       .  S
C669        C672   1.365       .  D
C669        C981   1.476       .  S
C670        C673   1.365       .  D
C670        C979   1.476       .  S
C671        C674   1.365       .  D
C671        C977   1.476       .  S
C672        C927   1.465       .  S
C673        C937   1.466       .  S
C674        C917   1.465       .  S
Zn675       O679   1.815       .  S
Zn675       O680   1.950       .  S
Zn675       O684   1.950       .  S
Zn675       O691   1.949       .  S
Zn676       O679   1.880       .  S
Zn676       O681   1.995       .  S
Zn676       O683   2.062       .  S
Zn676       O687   1.990       .  S
Zn677       O679   1.879       .  S
Zn677       O682   2.063       .  S
Zn677       O685   1.992       .  S
Zn677       O688   1.995       .  S
Zn678       O679   1.880       .  S
Zn678       O686   1.991       .  S
Zn678       O689   1.995       .  S
Zn678       O690   2.065       .  S
O680        C692   1.261       .  A
O681        C693   1.277       .  A
O682        C694   1.280       .  A
O683        C692   1.280       .  A
O684        C694   1.262       .  A
O685        C693   1.275       .  A
O686        C695   1.275       .  A
O687        C696   1.275       .  A
O688        C695   1.276       .  A
O689        C696   1.277       .  A
O690        C697   1.280       .  A
O691        C697   1.261       .  A
C692        C960   1.465       .  S
C693        C897   1.477       .  S
C694        C950   1.465       .  S
C695        C887   1.477       .  S
C696        C907   1.477       .  S
C697        C970   1.465       .  S
C698        H699   1.116       .  S
C698        C704   1.508   1_565  S
C698       C1030   1.508       .  S
C700        H701   1.110       .  S
C700       C1033   1.586   1_545  S
C700        C707   1.585       .  S
C702        C705   1.365       .  D
C702        C890   1.465       .  S
C703       C1025   1.508       .  S
C703        C706   1.365       .  D
C703        C910   1.466       .  S
C704        C707   1.365       .  D
C704        C900   1.466       .  S
C705        C885   1.476       .  S
C706       C1027   1.586       .  S
C706        C880   1.477       .  S
C707        C883   1.476       .  S
C708        H709   1.110       .  S
C708        C714   1.586       .  S
C708        C713   1.585       .  S
C708        C712   1.586       .  S
C710        H711   1.116       .  S
C710        C716   1.508       .  S
C710        C715   1.507       .  S
C710        C717   1.508       .  S
C712        C715   1.364       .  D
C712        C881   1.477       .  S
C713        C716   1.365       .  D
C713        C882   1.476       .  S
C714        C717   1.366       .  D
C714        C884   1.476       .  S
C715        C871   1.465       .  S
C716        C861   1.465       .  S
C717        C851   1.466       .  S
C718        H719   1.115       .  S
C718        C724   1.507       .  S
C718        C723   1.507       .  S
C718        C722   1.507       .  S
C720        H721   1.110       .  S
C720        C726   1.586       .  S
C720        C725   1.585       .  S
C720        C727   1.585       .  S
C722        C725   1.366       .  D
C722        C825   1.467       .  S
C723        C726   1.365       .  D
C723        C838   1.466       .  S
C724        C727   1.366       .  D
C724        C815   1.467       .  S
C725        C847   1.476       .  S
C726        C844   1.477       .  S
C727        C848   1.476       .  S
C728        H729   1.110       .  S
C728       C1061   1.585       .  S
C730       H1058   1.115       .  S
C730       C1064   1.507       .  S
H731       C1057   1.115       .  S
C732        C735   1.365       .  D
C732        C845   1.477       .  S
C733        C736   1.366       .  D
C733        C849   1.476       .  S
C734       C1055   1.585       .  S
C734        C737   1.366       .  D
C734        C846   1.476       .  S
C735        C808   1.465       .  S
C736        C795   1.467       .  S
C737       C1057   1.507       .  S
C737        C785   1.467       .  S
Zn738       O742   1.880       .  S
Zn738       O743   2.062       .  S
Zn738       O747   1.990       .  S
Zn738       O754   1.996       .  S
Zn739       O742   1.814       .  S
Zn739       O744   1.950       .  S
Zn739       O746   1.949       .  S
Zn739       O750   1.950       .  S
Zn740       O742   1.880       .  S
Zn740       O745   2.001       .  S
Zn740       O748   2.065       .  S
Zn740       O751   1.990       .  S
Zn741       O742   1.881       .  S
Zn741       O749   1.997       .  S
Zn741       O752   2.067       .  S
Zn741       O753   1.992       .  S
O743        C755   1.280       .  A
O744        C756   1.262       .  A
O745        C757   1.277       .  A
O746        C755   1.261       .  A
O747        C757   1.275       .  A
O748        C756   1.280       .  A
O749        C758   1.276       .  A
O750        C759   1.261       .  A
O751        C758   1.275       .  A
O752        C759   1.280       .  A
O753        C760   1.275       .  A
O754        C760   1.276       .  A
C755        C805   1.464       .  S
C756        C788   1.466       .  S
C757        C940   1.477   1_545  S
C758        C920   1.477       .  S
C759        C798   1.466       .  S
C760        C930   1.477   1_655  S
Zn761       O765   1.815       .  S
Zn761       O770   1.950   1_545  S
Zn762       O769   2.061       .  S
Zn762      O1100   1.992   1_544  S
Zn763       O765   1.880       .  S
Zn763       O768   2.066       .  S
Zn763       O771   1.992   1_554  S
Zn763      O1101   1.996   1_544  S
Zn764       O775   1.999   1_554  S
Zn764       O776   2.066       .  S
O766        C778   1.262   1_455  A
O767        C779   1.277       .  A
O768        C780   1.280       .  A
O769        C778   1.280       .  A
O770        C780   1.261   1_565  A
O771        C779   1.275       .  A
O772        C781   1.275       .  A
O773      Zn1089   1.992   1_556  S
O773        C782   1.275       .  A
O774      Zn1090   1.997   1_556  S
O774        C781   1.277       .  A
O775        C782   1.277       .  A
O776        C783   1.280       .  A
O777        C783   1.261       .  A
C778        C835   1.464       .  S
C779        C864   1.476       .  S
C780        C828   1.466       .  S
C781        C874   1.477       .  S
C782        C854   1.477       .  S
C783        C818   1.466       .  S
C784        C785   1.404       .  A
C784        C789   1.392       .  A
C784        H790   1.083       .  S
C785        C786   1.400       .  A
C786        C787   1.398       .  A
C786        H791   1.083   1_545  S
C787        C788   1.407       .  A
C787        H792   1.083       .  S
C788        C789   1.400       .  A
C789        H793   1.083       .  S
C794        C795   1.404       .  A
C794        C799   1.392       .  A
C795        C796   1.400       .  A
C796        C797   1.398       .  A
C796        H801   1.083       .  S
C797        C798   1.407       .  A
C797        H802   1.083       .  S
C798        C799   1.400       .  A
C799        H803   1.083       .  S
C804        C805   1.400       .  A
C804        C809   1.392       .  A
C804        H810   1.083       .  S
C805        C806   1.407       .  A
C806        C807   1.397       .  A
C806        H811   1.083   1_655  S
C807        C808   1.400       .  A
C808        C809   1.403       .  A
C809       H1140   1.083   1_545  S
H813       C1136   1.083       .  S
C814        C815   1.404       .  A
C814        C819   1.392       .  A
C814        H820   1.083       .  S
C815        C816   1.400       .  A
C816        C817   1.398       .  A
C816        H821   1.083       .  S
C817        C818   1.407       .  A
C817        H822   1.083       .  S
C818        C819   1.400       .  A
C824        C825   1.404       .  A
C824        C829   1.392       .  A
C824        H830   1.082       .  S
C825        C826   1.400       .  A
C826        C827   1.398       .  A
C826        H831   1.083       .  S
C827        C828   1.407       .  A
C827       H1159   1.083   1_545  S
C828        C829   1.400       .  A
C829        H833   1.083       .  S
H832       C1154   1.083       .  S
C834        C835   1.400       .  A
C834        C839   1.392       .  A
C834        H840   1.083       .  S
C835        C836   1.407       .  A
C836        C837   1.397       .  A
C836        H841   1.083   1_655  S
C837        C838   1.400       .  A
C837        H842   1.083   1_655  S
C838        C839   1.404       .  A
C839        H843   1.083       .  S
C844        C845   1.227       .  T
C846        C847   1.227       .  T
C848        C849   1.227       .  T
C850        C851   1.399       .  A
C850        C855   1.397       .  A
C850        H856   1.082       .  S
C851        C852   1.400       .  A
C852        C853   1.394       .  A
C852        H857   1.081       .  S
C853        C854   1.405       .  A
C853        H858   1.083       .  S
C854        C855   1.409       .  A
C855        H859   1.083       .  S
C860        C861   1.399       .  A
C860        C865   1.397       .  A
C860        H866   1.082       .  S
C861        C862   1.400       .  A
C862        C863   1.393       .  A
C862        H867   1.081       .  S
C863        C864   1.405       .  A
C863        H868   1.083       .  S
C864        C865   1.408       .  A
C865        H869   1.083       .  S
C870        C871   1.400       .  A
C870        C875   1.393       .  A
C870        H876   1.081       .  S
C871        C872   1.399       .  A
C872        C873   1.396       .  A
C872        H877   1.082       .  S
C873        C874   1.408       .  A
C873        H878   1.083       .  S
C874        C875   1.406       .  A
C875        H879   1.083       .  S
C880        C881   1.227       .  T
C882        C883   1.227       .  T
C884        C885   1.227       .  T
C886        C887   1.409       .  A
C886        C891   1.397       .  A
C886        H892   1.083       .  S
C887        C888   1.406       .  A
C888        C889   1.393       .  A
C888        H893   1.083       .  S
C889        C890   1.400       .  A
C889        H894   1.081       .  S
C890        C891   1.399       .  A
C891       H1222   1.082       .  S
H895       C1218   1.082   1_545  S
C896        C897   1.406       .  A
C896        C901   1.394       .  A
C896        H902   1.083       .  S
C897        C898   1.409       .  A
C898        C899   1.397       .  A
C898        H903   1.083       .  S
C899        C900   1.399       .  A
C899        H904   1.082       .  S
C900        C901   1.400       .  A
C906        C907   1.409       .  A
C906        C911   1.397       .  A
C906        H912   1.083       .  S
C907        C908   1.405       .  A
C908        C909   1.393       .  A
C908        H913   1.083       .  S
C909        C910   1.400       .  A
C909       H1241   1.081       .  S
C910        C911   1.399       .  A
H914       C1236   1.081   1_545  S
C916        C917   1.400       .  A
C916        C921   1.395       .  A
C916        H922   1.081       .  S
C917        C918   1.399       .  A
C918        C919   1.394       .  A
C918        H923   1.081       .  S
C919        C920   1.407       .  A
C919        H924   1.083       .  S
C920        C921   1.407       .  A
C921        H925   1.083       .  S
C926        C927   1.399       .  A
C926        H932   1.081       .  S
C927        C928   1.399       .  A
C928        C929   1.395       .  A
C928        H933   1.081       .  S
C929        H934   1.083       .  S
C930        C931   1.407       .  A
C931        H935   1.083       .  S
C936        C937   1.400       .  A
C936       C1268   1.396       .  A
C936        H942   1.081       .  S
C937        C938   1.399       .  A
C938        C939   1.395       .  A
C938        H943   1.081       .  S
C939       C1267   1.407       .  A
C939        H944   1.083       .  S
C940       C1266   1.407       .  A
C940        C941   1.407       .  A
C941       C1263   1.396       .  A
C941        H945   1.083       .  S
C946        C947   1.400       .  A
C946        C951   1.398       .  A
C946        H952   1.083       .  S
C947        C948   1.404       .  A
C948        C949   1.391       .  A
C948        H953   1.083       .  S
C949        C950   1.400       .  A
C949        H954   1.083       .  S
C950        C951   1.407       .  A
C951        H955   1.083       .  S
C956        C957   1.400       .  A
C956        H962   1.083       .  S
C957        C958   1.404       .  A
C958        C959   1.391       .  A
C958        H963   1.083       .  S
C959        H964   1.083       .  S
C960        C961   1.407       .  A
C961        H965   1.083       .  S
C966        C967   1.400       .  A
C966        C971   1.397   1_545  A
C966        H972   1.083       .  S
C967        C968   1.404       .  A
C968        C969   1.392       .  A
C968        H973   1.083       .  S
C969       C1297   1.399   1_545  A
C969       H1301   1.083       .  S
C970       C1296   1.399       .  A
C970       C1298   1.407       .  A
C971       C1297   1.407       .  A
C971        H975   1.083       .  S
H974       C1296   1.083       .  S
C976        C977   1.227       .  T
C978       C1306   1.227   1_545  T
C979       C1305   1.227       .  T
C982        H983   1.114       .  S
C982        C988   1.507       .  S
C982        C987   1.507       .  S
C982        C986   1.507       .  S
C984        H985   1.110       .  S
C984        C990   1.585       .  S
C984        C989   1.585       .  S
C984        C991   1.586       .  S
C986        C989   1.365       .  D
C986       C1284   1.467       .  S
C987        C990   1.366       .  D
C987       C1294   1.467       .  S
C988        C991   1.365       .  D
C988       C1274   1.467       .  S
C989       C1307   1.476       .  S
C990       C1305   1.476       .  S
C991       C1303   1.476       .  S
C992        H993   1.110       .  S
C992        C998   1.586       .  S
C992        C997   1.585       .  S
C992        C996   1.585       .  S
C994        H995   1.116       .  S
C994       C1000   1.508       .  S
C994        C999   1.508       .  S
C994       C1001   1.507       .  S
C996        C999   1.365       .  D
C996       C1308   1.476       .  S
C997       C1000   1.365       .  D
C997       C1306   1.476       .  S
C998       C1001   1.365       .  D
C998       C1304   1.476       .  S
C999       C1254   1.465       .  S
C1000      C1264   1.466       .  S
C1001      C1244   1.465       .  S
Zn1002     O1006   1.815       .  S
Zn1002     O1007   1.950       .  S
Zn1002     O1011   1.950       .  S
Zn1002     O1018   1.950       .  S
Zn1003     O1006   1.880       .  S
Zn1003     O1008   1.995       .  S
Zn1003     O1010   2.062       .  S
Zn1003     O1014   1.990       .  S
Zn1004     O1006   1.879       .  S
Zn1004     O1009   2.063       .  S
Zn1004     O1012   1.992       .  S
Zn1004     O1015   1.995       .  S
Zn1005     O1006   1.880       .  S
Zn1005     O1013   1.991       .  S
Zn1005     O1016   1.995       .  S
Zn1005     O1017   2.065       .  S
O1007      C1019   1.261       .  A
O1008      C1020   1.277       .  A
O1009      C1021   1.280       .  A
O1010      C1019   1.280       .  A
O1011      C1021   1.262       .  A
O1012      C1020   1.275       .  A
O1013      C1022   1.275       .  A
O1014      C1023   1.275       .  A
O1015      C1022   1.277       .  A
O1016      C1023   1.277       .  A
O1017      C1024   1.280       .  A
O1018      C1024   1.261       .  A
C1019      C1287   1.465       .  S
C1020      C1224   1.477       .  S
C1021      C1277   1.465       .  S
C1022      C1214   1.477       .  S
C1023      C1234   1.477       .  S
C1024      C1297   1.465       .  S
C1025      H1026   1.116       .  S
C1025      C1031   1.508       .  S
C1027      H1028   1.110       .  S
C1027      C1034   1.585       .  S
C1029      C1032   1.365       .  D
C1029      C1217   1.465       .  S
C1030      C1033   1.365       .  D
C1030      C1237   1.466       .  S
C1031      C1034   1.365       .  D
C1031      C1227   1.466       .  S
C1032      C1212   1.476       .  S
C1033      C1207   1.477       .  S
C1034      C1210   1.476       .  S
C1035      H1036   1.110       .  S
C1035      C1041   1.586       .  S
C1035      C1040   1.585       .  S
C1035      C1039   1.586       .  S
C1037      H1038   1.116       .  S
C1037      C1043   1.508       .  S
C1037      C1042   1.507       .  S
C1037      C1044   1.508       .  S
C1039      C1042   1.364       .  D
C1039      C1208   1.477       .  S
C1040      C1043   1.365       .  D
C1040      C1209   1.476       .  S
C1041      C1044   1.366       .  D
C1041      C1211   1.476       .  S
C1042      C1198   1.465       .  S
C1043      C1188   1.465       .  S
C1044      C1178   1.466       .  S
C1045      H1046   1.115       .  S
C1045      C1051   1.507       .  S
C1045      C1050   1.507       .  S
C1045      C1049   1.507       .  S
C1047      H1048   1.110       .  S
C1047      C1053   1.586       .  S
C1047      C1052   1.585       .  S
C1047      C1054   1.585       .  S
C1049      C1052   1.366       .  D
C1049      C1152   1.467       .  S
C1050      C1053   1.365       .  D
C1050      C1165   1.466       .  S
C1051      C1054   1.366       .  D
C1051      C1142   1.467       .  S
C1052      C1174   1.476       .  S
C1053      C1171   1.477       .  S
C1054      C1175   1.476       .  S
C1055      H1056   1.110       .  S
C1059      C1062   1.365       .  D
C1059      C1172   1.477       .  S
C1060      C1063   1.366       .  D
C1060      C1176   1.476       .  S
C1061      C1064   1.366       .  D
C1061      C1173   1.476       .  S
C1062      C1135   1.465       .  S
C1063      C1122   1.467       .  S
C1064      C1112   1.467       .  S
Zn1065     O1069   1.880       .  S
Zn1065     O1070   2.062       .  S
Zn1065     O1074   1.990       .  S
Zn1065     O1081   1.996       .  S
Zn1066     O1069   1.814       .  S
Zn1066     O1071   1.950       .  S
Zn1066     O1073   1.949       .  S
Zn1066     O1077   1.950       .  S
Zn1067     O1069   1.880       .  S
Zn1067     O1072   2.001       .  S
Zn1067     O1075   2.065       .  S
Zn1067     O1078   1.990       .  S
Zn1068     O1069   1.881       .  S
Zn1068     O1076   1.997       .  S
Zn1068     O1079   2.067       .  S
Zn1068     O1080   1.992       .  S
O1070      C1082   1.280       .  A
O1071      C1083   1.262       .  A
O1072      C1084   1.277       .  A
O1073      C1082   1.261       .  A
O1074      C1084   1.275       .  A
O1075      C1083   1.280       .  A
O1076      C1085   1.276       .  A
O1077      C1086   1.261       .  A
O1078      C1085   1.275       .  A
O1079      C1086   1.280       .  A
O1080      C1087   1.275       .  A
O1081      C1087   1.276       .  A
C1082      C1132   1.464       .  S
C1083      C1115   1.466       .  S
C1084      C1267   1.477       .  S
C1085      C1247   1.477       .  S
C1086      C1125   1.466       .  S
C1087      C1257   1.477   1_655  S
Zn1088     O1092   1.815       .  S
Zn1088     O1097   1.950       .  S
Zn1089     O1096   2.061       .  S
Zn1090     O1092   1.881       .  S
Zn1090     O1095   2.066       .  S
Zn1090     O1098   1.992   1_554  S
Zn1091     O1102   1.999   1_554  S
Zn1091     O1103   2.066       .  S
O1093      C1105   1.262   1_455  A
O1094      C1106   1.277       .  A
O1095      C1107   1.280       .  A
O1096      C1105   1.280       .  A
O1097      C1107   1.261       .  A
O1098      C1106   1.275       .  A
O1099      C1108   1.275       .  A
O1100      C1109   1.275       .  A
O1101      C1108   1.277       .  A
O1102      C1109   1.277       .  A
O1103      C1110   1.280       .  A
O1104      C1110   1.261       .  A
C1105      C1162   1.464       .  S
C1106      C1191   1.476       .  S
C1107      C1155   1.466       .  S
C1108      C1201   1.477       .  S
C1109      C1181   1.477       .  S
C1110      C1145   1.466       .  S
C1111      C1112   1.404       .  A
C1111      C1116   1.392       .  A
C1111      H1117   1.083       .  S
C1112      C1113   1.400       .  A
C1113      C1114   1.398       .  A
C1113      H1118   1.083       .  S
C1114      C1115   1.407       .  A
C1114      H1119   1.083       .  S
C1115      C1116   1.400       .  A
C1116      H1120   1.083       .  S
C1121      C1122   1.404       .  A
C1121      C1126   1.392       .  A
C1122      C1123   1.400       .  A
C1123      C1124   1.398       .  A
C1123      H1128   1.083       .  S
C1124      C1125   1.407       .  A
C1124      H1129   1.083       .  S
C1125      C1126   1.400       .  A
C1126      H1130   1.083       .  S
C1131      C1132   1.400       .  A
C1131      C1136   1.392       .  A
C1131      H1137   1.083       .  S
C1132      C1133   1.407       .  A
C1133      C1134   1.397       .  A
C1133      H1138   1.083   1_655  S
C1134      C1135   1.400       .  A
C1135      C1136   1.403       .  A
C1141      C1142   1.404       .  A
C1141      C1146   1.392       .  A
C1141      H1147   1.083       .  S
C1142      C1143   1.400       .  A
C1143      C1144   1.398       .  A
C1143      H1148   1.083       .  S
C1144      C1145   1.407       .  A
C1144      H1149   1.083       .  S
C1145      C1146   1.400       .  A
C1151      C1152   1.404       .  A
C1151      C1156   1.392       .  A
C1151      H1157   1.082       .  S
C1152      C1153   1.400       .  A
C1153      C1154   1.398       .  A
C1153      H1158   1.083       .  S
C1154      C1155   1.407       .  A
C1155      C1156   1.400       .  A
C1156      H1160   1.083       .  S
C1161      C1162   1.400       .  A
C1161      C1166   1.392       .  A
C1161      H1167   1.083       .  S
C1162      C1163   1.407       .  A
C1163      C1164   1.397       .  A
C1163      H1168   1.083   1_655  S
C1164      C1165   1.400       .  A
C1164      H1169   1.083   1_655  S
C1165      C1166   1.404       .  A
C1166      H1170   1.083       .  S
C1171      C1172   1.227       .  T
C1173      C1174   1.227       .  T
C1175      C1176   1.227       .  T
C1177      C1178   1.399       .  A
C1177      C1182   1.397       .  A
C1177      H1183   1.082       .  S
C1178      C1179   1.400       .  A
C1179      C1180   1.394       .  A
C1179      H1184   1.081       .  S
C1180      C1181   1.405       .  A
C1180      H1185   1.083       .  S
C1181      C1182   1.409       .  A
C1182      H1186   1.083   1_565  S
C1187      C1188   1.399       .  A
C1187      C1192   1.397       .  A
C1187      H1193   1.082       .  S
C1188      C1189   1.400       .  A
C1189      C1190   1.393       .  A
C1189      H1194   1.081       .  S
C1190      C1191   1.405       .  A
C1190      H1195   1.083       .  S
C1191      C1192   1.408       .  A
C1192      H1196   1.083       .  S
C1197      C1198   1.400       .  A
C1197      C1202   1.394       .  A
C1197      H1203   1.081       .  S
C1198      C1199   1.399       .  A
C1199      C1200   1.396       .  A
C1199      H1204   1.082       .  S
C1200      C1201   1.408       .  A
C1200      H1205   1.083       .  S
C1201      C1202   1.406       .  A
C1202      H1206   1.083   1_565  S
C1207      C1208   1.227       .  T
C1209      C1210   1.227       .  T
C1211      C1212   1.227       .  T
C1213      C1214   1.409       .  A
C1213      C1218   1.397       .  A
C1213      H1219   1.083   1_565  S
C1214      C1215   1.405       .  A
C1215      C1216   1.393       .  A
C1215      H1220   1.083       .  S
C1216      C1217   1.400       .  A
C1216      H1221   1.081       .  S
C1217      C1218   1.399       .  A
C1223      C1224   1.406       .  A
C1223      C1228   1.394       .  A
C1223      H1229   1.083       .  S
C1224      C1225   1.409       .  A
C1225      C1226   1.397       .  A
C1225      H1230   1.083       .  S
C1226      C1227   1.399       .  A
C1226      H1231   1.082       .  S
C1227      C1228   1.400       .  A
C1233      C1234   1.409       .  A
C1233      C1238   1.397       .  A
C1233      H1239   1.083       .  S
C1234      C1235   1.405       .  A
C1235      C1236   1.393       .  A
C1235      H1240   1.083   1_565  S
C1236      C1237   1.400       .  A
C1237      C1238   1.399       .  A
C1243      C1244   1.400       .  A
C1243      C1248   1.395       .  A
C1243      H1249   1.081       .  S
C1244      C1245   1.399       .  A
C1245      C1246   1.394       .  A
C1245      H1250   1.081       .  S
C1246      C1247   1.407       .  A
C1246      H1251   1.083       .  S
C1247      C1248   1.407       .  A
C1248      H1252   1.083       .  S
C1253      C1254   1.400       .  A
C1253      H1259   1.081       .  S
C1254      C1255   1.399       .  A
C1255      C1256   1.395       .  A
C1255      H1260   1.081       .  S
C1256      H1261   1.083       .  S
C1257      C1258   1.407       .  A
C1258      H1262   1.083       .  S
C1263      C1264   1.400       .  A
C1263      H1269   1.081       .  S
C1264      C1265   1.399       .  A
C1265      C1266   1.395       .  A
C1265      H1270   1.081       .  S
C1266      H1271   1.083       .  S
C1267      C1268   1.407       .  A
C1268      H1272   1.083       .  S
C1273      C1274   1.400       .  A
C1273      C1278   1.398       .  A
C1273      H1279   1.083       .  S
C1274      C1275   1.404       .  A
C1275      C1276   1.391       .  A
C1275      H1280   1.083       .  S
C1276      C1277   1.400       .  A
C1276      H1281   1.083       .  S
C1277      C1278   1.407       .  A
C1278      H1282   1.083       .  S
C1283      C1284   1.400       .  A
C1283      H1289   1.083       .  S
C1284      C1285   1.404       .  A
C1285      C1286   1.391       .  A
C1285      H1290   1.083       .  S
C1286      H1291   1.083       .  S
C1287      C1288   1.407       .  A
C1288      H1292   1.083       .  S
C1293      C1294   1.400       .  A
C1293      C1298   1.397       .  A
C1293      H1299   1.083       .  S
C1294      C1295   1.404       .  A
C1295      C1296   1.392       .  A
C1295      H1300   1.083       .  S
C1298      H1302   1.083       .  S
C1303      C1304   1.227       .  T
