geometry optimzed in LAMMPS
_audit_creation_date              2020-12-01 
_audit_creation_method            'lammps2cif' 
_symmetry_space_group_name_H-M    'P1' 
_symmetry_Int_Tables_number       1 
_symmetry_cell_setting            triclinic 
loop_ 
_symmetry_equiv_pos_as_xyz 
  x,y,z 
_cell_length_a                    46.87616687 
_cell_length_b                    46.81460847064284 
_cell_length_c                    44.578867586222984 
_cell_angle_alpha                 90.26049253051532 
_cell_angle_beta                  90.03754584740639 
_cell_angle_gamma                 120.13618389781858 
loop_ 
_atom_site_label 
_atom_site_type_symbol 
_atom_site_fract_x 
_atom_site_fract_y 
_atom_site_fract_z 
_atom_site_charge 
C1          C  0.51195289  0.01198828  0.98704887     0.04600
S2          S  0.48867076  0.02912916  0.97114840    -0.09400
C3          C  0.52153816  0.05579280  0.94666151    -0.00500
C4          C  0.55003918  0.05526342  0.94802784    -0.00500
S5          S  0.55361494  0.02848610  0.97437835    -0.09400
C6          C  0.48787314  0.94172588  0.04577744    -0.00500
C7          C  0.46051017  0.94439452  0.04675755    -0.00500
S8          S  0.45854615  0.97418752  0.02312955    -0.09400
C9          C  0.49864906  0.98768775  0.00759394     0.04600
S10         S  0.52018290  0.96733009  0.02039285    -0.09400
O11         O  0.47548574  0.77752584  0.28662409    -0.71800
O12         O  0.47228970  0.71460974  0.22246879    -0.72800
O13         O  0.46715355  0.71285849  0.28620242    -0.61400
O14         O  0.47977224  0.77863982  0.22293476    -0.69800
O15         O  0.53413050  0.80205003  0.22756797    -0.69400
O16         O  0.52133464  0.73390800  0.28932025    -0.60600
O17         O  0.52674010  0.73798857  0.22581499    -0.73100
O18         O  0.52957261  0.79832538  0.29069527    -0.71900
Cu19       Cu  0.47173675  0.74509735  0.25446404     1.04600
Cu20       Cu  0.52979878  0.76876811  0.25847911     1.04300
C21         C  0.50327463  0.79797172  0.29860477     0.94400
C22         C  0.49938689  0.71686189  0.21386411     0.93500
C23         C  0.49207865  0.71272613  0.29757886     0.85700
C24         C  0.50884473  0.80091559  0.21549171     0.91900
O25         O  0.52045486  0.30273316  0.72438090    -0.71800
O26         O  0.54318938  0.25651160  0.78742269    -0.72800
O27         O  0.53964787  0.25430046  0.72378611    -0.61400
O28         O  0.52387905  0.30494123  0.78791749    -0.69800
O29         O  0.47128097  0.26565799  0.79057865    -0.69400
O30         O  0.48682919  0.21540016  0.72552363    -0.60600
O31         O  0.49068011  0.21692684  0.78957578    -0.73100
O32         O  0.46764239  0.26404753  0.72672169    -0.71900
Cu33       Cu  0.53358297  0.28096212  0.75584034     1.04600
Cu34       Cu  0.47724817  0.23907643  0.75822870     1.04300
C35         C  0.49066240  0.29076263  0.71542235     0.94400
C36         C  0.52059599  0.22942795  0.79845961     0.93500
C37         C  0.51558947  0.22711167  0.71416656     0.85700
C38         C  0.49519188  0.29341008  0.79935365     0.91900
O39         O  0.72640351  0.20955112  0.70245279    -0.71800
O40         O  0.79641621  0.25389303  0.76636467    -0.72800
O41         O  0.73403928  0.19443720  0.76226538    -0.61400
O42         O  0.78920423  0.26917884  0.70613622    -0.69800
O43         O  0.76465647  0.29631830  0.72241227    -0.69400
O44         O  0.70983396  0.22199574  0.77834683    -0.60600
O45         O  0.77131940  0.28063062  0.78225749    -0.73100
O46         O  0.70219101  0.23704110  0.71867717    -0.71900
Cu47       Cu  0.76243252  0.23084741  0.73364278     1.04600
Cu48       Cu  0.73617790  0.25994466  0.75089537     1.04300
C49         C  0.70279816  0.21578494  0.70106688     0.94400
C50         C  0.79462125  0.27411755  0.78456270     0.93500
C51         C  0.71323830  0.19658070  0.77920936     0.85700
C52         C  0.78597379  0.29473014  0.70575553     0.91900
O53         O  0.23229586  0.69195636  0.22240048    -0.71800
O54         O  0.29559398  0.76726300  0.27414123    -0.72800
O55         O  0.23380681  0.70915123  0.28345375    -0.61400
O56         O  0.29409929  0.75055097  0.21312071    -0.69800
O57         O  0.26933462  0.77921014  0.20286112    -0.69400
O58         O  0.20680663  0.73515567  0.27132609    -0.60600
O59         O  0.26899054  0.79436512  0.26481420    -0.73100
O60         O  0.20722033  0.71972960  0.20981125    -0.71900
Cu61       Cu  0.26483191  0.72880621  0.24864241     1.04600
Cu62       Cu  0.23717713  0.75811723  0.23677818     1.04300
C63         C  0.20971161  0.69376660  0.20803898     0.94400
C64         C  0.29234264  0.79250857  0.27783850     0.93500
C65         C  0.21041083  0.71516521  0.28812387     0.85700
C66         C  0.29170690  0.77193899  0.19729821     0.91900
C67         C  0.98441891  0.47789836  0.98690272     0.04600
S68         S  0.97629659  0.50621668  0.96677738    -0.09400
C69         C  0.94438245  0.47398959  0.94479418    -0.00500
C70         C  0.93742080  0.44265677  0.94909847    -0.00500
S71         S  0.96136382  0.43511415  0.97597832    -0.09400
C72         C  0.04405473  0.49281203  0.05424208    -0.00500
C73         C  0.05093223  0.52406852  0.04941703    -0.00500
S74         S  0.03078313  0.53155222  0.01892551    -0.09400
C75         C  0.00673962  0.48847473  0.00941864     0.04600
S76         S  0.01345563  0.46027065  0.03133851    -0.09400
C77         C  0.99726018  0.50427905  0.51488774     0.04600
S78         S  0.97475316  0.46079790  0.52268351    -0.09400
C79         C  0.94942300  0.46527260  0.55041576    -0.00500
C80         C  0.95261516  0.49542681  0.55423597    -0.00500
S81         S  0.98420293  0.52953176  0.53398937    -0.09400
C82         C  0.07174232  0.55818270  0.46225916    -0.00500
C83         C  0.06950432  0.52866226  0.45788584    -0.00500
S84         S  0.03716739  0.49323084  0.47656142    -0.09400
C85         C  0.02293432  0.51772906  0.49564909     0.04600
S86         S  0.04458629  0.56138282  0.48830466    -0.09400
O87         O  0.28976047  0.52963550  0.28433885    -0.71800
O88         O  0.22293657  0.51310963  0.22027952    -0.72800
O89         O  0.22295753  0.51407472  0.28394421    -0.61400
O90         O  0.29003327  0.52879921  0.22112620    -0.69800
O91         O  0.27426877  0.47546707  0.22193381    -0.69400
O92         O  0.20547809  0.46037615  0.28370274    -0.60600
O93         O  0.20755711  0.45985759  0.21955321    -0.73100
O94         O  0.27256892  0.47598627  0.28546194    -0.71900
Cu95       Cu  0.25686532  0.52322032  0.25240726     1.04600
Cu96       Cu  0.23927847  0.46600627  0.25271557     1.04300
C97         C  0.29200100  0.50545913  0.29469825     0.94400
C98         C  0.20515519  0.48403867  0.20944324     0.93500
C99         C  0.20373450  0.48501824  0.29387646     0.85700
C100        C  0.29318366  0.50462721  0.21203358     0.91900
O101        O  0.75053541  0.45181624  0.71416028    -0.71800
O102        O  0.69949263  0.45462953  0.78504018    -0.72800
O103        O  0.69550624  0.45998319  0.72165306    -0.61400
O104        O  0.75528730  0.44678025  0.77704706    -0.69800
O105        O  0.78827242  0.50110669  0.78036810    -0.69400
O106        O  0.72797777  0.51435216  0.72583469    -0.60600
O107        O  0.73212354  0.50894777  0.78891595    -0.73100
O108        O  0.78355401  0.50615534  0.71725139    -0.71900
Cu109      Cu  0.72403960  0.45144141  0.74944625     1.04600
Cu110      Cu  0.75915471  0.50957382  0.75325899     1.04300
C111        C  0.77495159  0.47845729  0.70441191     0.94400
C112        C  0.70744006  0.48198757  0.79808736     0.93500
C113        C  0.70264411  0.48929236  0.71470792     0.85700
C114        C  0.78143525  0.47183735  0.78710750     0.91900
C115        C  0.51271079  0.51243760  0.98692418     0.04600
S116        S  0.55479060  0.53960387  0.97575301    -0.09400
C117        C  0.55322590  0.51157771  0.94738177    -0.00500
C118        C  0.52440764  0.48331465  0.94278094    -0.00500
S119        S  0.49009199  0.47411915  0.96672819    -0.09400
C120        C  0.45885928  0.52037787  0.05031657    -0.00500
C121        C  0.48695253  0.54983384  0.05345949    -0.00500
S122        S  0.52139073  0.55847600  0.03000283    -0.09400
C123        C  0.49868670  0.52044699  0.00948029     0.04600
S124        S  0.45652231  0.49356816  0.02035734    -0.09400
C125        C  0.51562439  0.48964629  0.50163450     0.04600
S126        S  0.48954609  0.45181220  0.52149920    -0.09400
C127        C  0.52376945  0.45450420  0.54203995    -0.00500
C128        C  0.55370164  0.48148106  0.53830783    -0.00500
S129        S  0.55873196  0.51160118  0.51121369    -0.09400
C130        C  0.49682756  0.53599287  0.43837730    -0.00500
C131        C  0.46623933  0.50973298  0.44241274    -0.00500
S132        S  0.46056624  0.48038059  0.47091898    -0.09400
C133        C  0.50360322  0.50117751  0.48026939     0.04600
S134        S  0.53018555  0.53805323  0.45974658    -0.09400
C135        C  0.48681414  0.01822122  0.50478384     0.04600
S136        S  0.52942263  0.03605373  0.51522505    -0.09400
C137        C  0.52640451  0.06126331  0.54409478    -0.00500
C138        C  0.49736806  0.06054508  0.54740353    -0.00500
S139        S  0.46344931  0.03354278  0.52378585    -0.09400
C140        C  0.43288688  0.95194334  0.44440993    -0.00500
C141        C  0.45983818  0.94862343  0.44384977    -0.00500
S142        S  0.49462458  0.97593113  0.46678279    -0.09400
C143        C  0.47275919  0.99431317  0.48364604     0.04600
S144        S  0.43101010  0.97925892  0.47142779    -0.09400
C145        C  0.66670334  0.50785603  0.85974741     0.19800
C146        C  0.65736499  0.53203324  0.86080871    -0.18300
C147        C  0.63458860  0.53034332  0.88213410    -0.10600
C148        C  0.62109598  0.50462540  0.90328328     0.22100
C149        C  0.63143481  0.48117461  0.90282191    -0.19900
C150        C  0.65400802  0.48277335  0.88144137    -0.10700
C151        C  0.59427419  0.49941128  0.92444126    -0.14900
C152        C  0.58362264  0.52096836  0.92953171    -0.28800
C153        C  0.68919164  0.50907979  0.83552769    -0.03000
C154        C  0.68733195  0.48161254  0.82380785    -0.39600
H155        H  0.66688067  0.55168597  0.84442272     0.13200
H156        H  0.62700274  0.54863504  0.88124226     0.12800
H157        H  0.62152471  0.46109129  0.91878096     0.12300
H158        H  0.66136787  0.46426114  0.88192492     0.12500
H159        H  0.58148005  0.47564855  0.93565084     0.15300
H160        H  0.59729344  0.54601986  0.92120147     0.14000
H161        H  0.70591569  0.53288392  0.82557603     0.11700
H162        H  0.66895988  0.45754490  0.83212302     0.13700
C163        C  0.60513617  0.48717726  0.60725300     0.19800
C164        C  0.60754425  0.49870734  0.63674329    -0.18300
C165        C  0.62713479  0.49452060  0.65782705    -0.10600
C166        C  0.64428008  0.47817356  0.64986666     0.22100
C167        C  0.64157114  0.46621168  0.62049364    -0.19900
C168        C  0.62240115  0.47091439  0.59922255    -0.10700
C169        C  0.66413830  0.47233623  0.67215259    -0.14900
C170        C  0.68182425  0.49464025  0.69348351    -0.28800
C171        C  0.58102988  0.48849628  0.58675838    -0.03000
C172        C  0.58257725  0.48756031  0.55669943    -0.39600
H173        H  0.59376881  0.51052303  0.64361204     0.13200
H174        H  0.62803719  0.50317060  0.68056016     0.12800
H175        H  0.65424130  0.45313170  0.61404795     0.12300
H176        H  0.62003490  0.46059353  0.57697849     0.12500
H177        H  0.66582339  0.45009453  0.66987264     0.15300
H178        H  0.68284470  0.51833577  0.69410810     0.14000
H179        H  0.55983064  0.48830532  0.59690634     0.11700
H180        H  0.60436056  0.49030020  0.54551612     0.13700
C181        C  0.40329678  0.50504715  0.11941320     0.19800
C182        C  0.40865868  0.52524700  0.14458122    -0.18300
C183        C  0.38248469  0.51980744  0.16322651    -0.10600
C184        C  0.35044376  0.49360312  0.15731536     0.22100
C185        C  0.34523326  0.47274027  0.13268646    -0.19900
C186        C  0.37134881  0.47860158  0.11364178    -0.10700
C187        C  0.32246454  0.48682373  0.17726716    -0.14900
C188        C  0.31973837  0.51114106  0.19064702    -0.28800
C189        C  0.43173380  0.51228598  0.09996216    -0.03000
C190        C  0.42938812  0.50859713  0.06993177    -0.39600
H191        H  0.43313763  0.54559474  0.14959595     0.13200
H192        H  0.38747514  0.53574250  0.18255258     0.12800
H193        H  0.32083601  0.45209680  0.12801277     0.12300
H194        H  0.36662335  0.46214098  0.09479493     0.12500
H195        H  0.30326489  0.46127117  0.18038593     0.15300
H196        H  0.33768194  0.53676848  0.18594655     0.14000
H197        H  0.45592263  0.52380312  0.11048598     0.11700
H198        H  0.40536198  0.49655864  0.05913041     0.13700
C199        C  0.40638770  0.50320054  0.37957637     0.19800
C200        C  0.40993660  0.52522162  0.35674596    -0.18300
C201        C  0.38239477  0.52112512  0.34089785    -0.10600
C202        C  0.35077394  0.49451671  0.34732940     0.22100
C203        C  0.34733291  0.47216932  0.36984478    -0.19900
C204        C  0.37483647  0.47660679  0.38606214    -0.10700
C205        C  0.32155648  0.48804576  0.32923086    -0.14900
C206        C  0.31845127  0.51227942  0.31639805    -0.28800
C207        C  0.43615204  0.50817507  0.39569212    -0.03000
C208        C  0.43625990  0.50314179  0.42535055    -0.39600
H209        H  0.43409610  0.54571588  0.35124870     0.13200
H210        H  0.38609164  0.53819813  0.32301761     0.12800
H211        H  0.32331636  0.45117157  0.37480207     0.12300
H212        H  0.37151635  0.45879276  0.40309490     0.12500
H213        H  0.30225560  0.46248785  0.32607043     0.15300
H214        H  0.33659445  0.53795639  0.32088492     0.14000
H215        H  0.45891452  0.51801209  0.38304722     0.11700
H216        H  0.41328974  0.49266352  0.43774908     0.13700
C217        C  0.15525143  0.50275187  0.35440420     0.19800
C218        C  0.15788479  0.53219585  0.36516104    -0.18300
C219        C  0.13615219  0.53170777  0.38675393    -0.10600
C220        C  0.11130182  0.50158853  0.39861611     0.22100
C221        C  0.10841775  0.47204954  0.38782536    -0.19900
C222        C  0.13023127  0.47252075  0.36606116    -0.10700
C223        C  0.08711197  0.50047130  0.42088551    -0.14900
C224        C  0.09438464  0.52598962  0.43934939    -0.28800
C225        C  0.17885766  0.50536202  0.33073398    -0.03000
C226        C  0.17936326  0.47972983  0.31741319    -0.39600
H227        H  0.17660692  0.55583920  0.35646153     0.13200
H228        H  0.13844786  0.55503287  0.39336064     0.12800
H229        H  0.08923022  0.44852656  0.39629072     0.12300
H230        H  0.12706100  0.44915694  0.35850853     0.12500
H231        H  0.06258529  0.47880337  0.42130616     0.15300
H232        H  0.11922262  0.54711445  0.43957148     0.14000
H233        H  0.19697128  0.53019176  0.32372214     0.11700
H234        H  0.16215072  0.45449567  0.32374706     0.13700
C235        C  0.88040153  0.49095226  0.60046080     0.19800
C236        C  0.84587324  0.47402917  0.59783968    -0.18300
C237        C  0.82652171  0.47781466  0.61962885    -0.10600
C238        C  0.84142096  0.49861506  0.64457386     0.22100
C239        C  0.87587277  0.51617032  0.64682352    -0.19900
C240        C  0.89518942  0.51210629  0.62529490    -0.10700
C241        C  0.82183166  0.50196073  0.66901724    -0.14900
C242        C  0.79298195  0.47644538  0.67813236    -0.28800
C243        C  0.89991307  0.48438196  0.57799036    -0.03000
C244        C  0.93283804  0.50331285  0.57509543    -0.39600
H245        H  0.83380584  0.45755501  0.57902540     0.13200
H246        H  0.79997584  0.46447126  0.61693078     0.12800
H247        H  0.88786023  0.53222288  0.66590756     0.12300
H248        H  0.92154280  0.52489016  0.62889779     0.12500
H249        H  0.83282186  0.52504415  0.68156748     0.15300
H250        H  0.78300438  0.45260640  0.66702998     0.14000
H251        H  0.88675066  0.46287364  0.56350913     0.11700
H252        H  0.94608037  0.52671828  0.58687436     0.13700
C253        C  0.14865796  0.49412365  0.15377168     0.19800
C254        C  0.11895929  0.49381960  0.15830002    -0.18300
C255        C  0.09983788  0.49278363  0.13383635    -0.10600
C256        C  0.11071569  0.49313610  0.10437400     0.22100
C257        C  0.14046608  0.49339254  0.09986804    -0.19900
C258        C  0.15907435  0.49332771  0.12440573    -0.10700
C259        C  0.09324330  0.49694341  0.07840850    -0.14900
C260        C  0.06036619  0.48386319  0.07777018    -0.28800
C261        C  0.16996313  0.49833616  0.17974588    -0.03000
C262        C  0.18229470  0.47835159  0.18443711    -0.39600
H263        H  0.11079612  0.49482606  0.18080672     0.13200
H264        H  0.07739783  0.49336895  0.13802665     0.12800
H265        H  0.14952288  0.49415466  0.07736418     0.12300
H266        H  0.18228119  0.49415436  0.12049747     0.12500
H267        H  0.10792004  0.51201708  0.05974496     0.15300
H268        H  0.04497433  0.46647580  0.09483440     0.14000
H269        H  0.17477003  0.51775928  0.19585428     0.11700
H270        H  0.17521753  0.45723616  0.16973667     0.13700
C271        C  0.89818359  0.47781705  0.87464282     0.19800
C272        C  0.87858458  0.45333443  0.85364959    -0.18300
C273        C  0.85715087  0.45747439  0.83479217    -0.10600
C274        C  0.85508669  0.48641230  0.83649450     0.22100
C275        C  0.87576904  0.51150095  0.85659763    -0.19900
C276        C  0.89702288  0.50723788  0.87564723    -0.10700
C277        C  0.83220007  0.49150189  0.81725785    -0.14900
C278        C  0.80382565  0.46641988  0.80636192    -0.28800
C279        C  0.91930290  0.47161690  0.89514143    -0.03000
C280        C  0.92639199  0.48352370  0.92335688    -0.39600
H281        H  0.87943028  0.43064556  0.85221442     0.13200
H282        H  0.84255592  0.43812606  0.81877494     0.12800
H283        H  0.87510878  0.53428210  0.85788493     0.12300
H284        H  0.91262426  0.52705430  0.89090053     0.12500
H285        H  0.83835012  0.51678177  0.81286173     0.15300
H286        H  0.79648164  0.44106226  0.81173151     0.14000
H287        H  0.92730928  0.45471701  0.88744828     0.11700
H288        H  0.91924066  0.50097576  0.93125725     0.13700
C289        C  0.33629924  0.86813016  0.32993269     0.19800
C290        C  0.32610170  0.87706969  0.35616624    -0.18300
C291        C  0.34940205  0.89859721  0.37711558    -0.10600
C292        C  0.38335915  0.91198380  0.37176899     0.22100
C293        C  0.39339103  0.90450476  0.34462619    -0.19900
C294        C  0.37018847  0.88266294  0.32402773    -0.10700
C295        C  0.40933807  0.93309687  0.39380070    -0.14900
C296        C  0.40447808  0.93390927  0.42351860    -0.28800
C297        C  0.31148918  0.84279093  0.30941182    -0.03000
C298        C  0.31657390  0.81948832  0.29706450    -0.39600
H299        H  0.30007349  0.86648474  0.36093051     0.13200
H300        H  0.34068446  0.90450464  0.39734390     0.12800
H301        H  0.41936203  0.91488821  0.33967006     0.12300
H302        H  0.37876952  0.87692702  0.30356630     0.12500
H303        H  0.43450353  0.94676482  0.38548904     0.15300
H304        H  0.37988057  0.92153395  0.43294910     0.14000
H305        H  0.28794901  0.84166542  0.30632351     0.11700
H306        H  0.33897582  0.81908561  0.30249921     0.13700
C307        C  0.14134295  0.63687853  0.15249987     0.19800
C308        C  0.13269206  0.64197197  0.12373864    -0.18300
C309        C  0.11139890  0.61516426  0.10561036    -0.10600
C310        C  0.09795147  0.58260066  0.11612180     0.22100
C311        C  0.10572549  0.57760919  0.14533806    -0.19900
C312        C  0.12736304  0.60441045  0.16331036    -0.10700
C313        C  0.07498411  0.55338251  0.09774765    -0.14900
C314        C  0.07449949  0.55325724  0.06752191    -0.28800
C315        C  0.16441331  0.66588204  0.17094016    -0.03000
C316        C  0.18628373  0.66501447  0.18986735    -0.39600
H317        H  0.14274130  0.66679434  0.11514428     0.13200
H318        H  0.10511341  0.62018959  0.08368759     0.12800
H319        H  0.09520966  0.55286716  0.15422998     0.12300
H320        H  0.13273110  0.59971060  0.18577309     0.12500
H321        H  0.05823376  0.53092984  0.10963652     0.15300
H322        H  0.09047348  0.57560898  0.05523972     0.14000
H323        H  0.16465856  0.68898491  0.16760069     0.11700
H324        H  0.18766140  0.64261054  0.19172567     0.13700
C325        C  0.16578901  0.66004820  0.35580635     0.19800
C326        C  0.17546134  0.65471858  0.38405556    -0.18300
C327        C  0.15198288  0.63265209  0.40426477    -0.10600
C328        C  0.11842788  0.61504066  0.39624969     0.22100
C329        C  0.10875308  0.62046925  0.36807618    -0.19900
C330        C  0.13211446  0.64297067  0.34811950    -0.10700
C331        C  0.09364214  0.58814964  0.41517930    -0.14900
C332        C  0.09514431  0.58804013  0.44529030    -0.28800
C333        C  0.19140421  0.68091773  0.33371134    -0.03000
C334        C  0.18638012  0.69805384  0.31229257    -0.39600
H335        H  0.20131320  0.66720262  0.39025484     0.13200
H336        H  0.16028680  0.62823013  0.42549017     0.12800
H337        H  0.08309960  0.60669924  0.36124260     0.12300
H338        H  0.12391471  0.64574166  0.32618464     0.12500
H339        H  0.07348976  0.56705343  0.40379568     0.15300
H340        H  0.11317708  0.60972138  0.45758420     0.14000
H341        H  0.21506339  0.68195693  0.33501379     0.11700
H342        H  0.16374475  0.69907962  0.31204359     0.13700
C343        C  0.58616112  0.10800112  0.60980284     0.19800
C344        C  0.58305838  0.12471944  0.63464291    -0.18300
C345        C  0.61073679  0.14629811  0.65166542    -0.10600
C346        C  0.64213405  0.15126451  0.64433628     0.22100
C347        C  0.64503714  0.13394437  0.61985176    -0.19900
C348        C  0.61740946  0.11269802  0.60259341    -0.10700
C349        C  0.67186439  0.17247613  0.66286512    -0.14900
C350        C  0.67499516  0.19762474  0.68001298    -0.28800
C351        C  0.55624503  0.08537858  0.59230204    -0.03000
C352        C  0.55659699  0.08179653  0.56235029    -0.39600
H353        H  0.55913516  0.12115787  0.64081578     0.13200
H354        H  0.60720383  0.15824308  0.67097313     0.12800
H355        H  0.66878919  0.13683419  0.61408657     0.12300
H356        H  0.62044915  0.09944610  0.58406936     0.12500
H357        H  0.69179713  0.16697722  0.66248650     0.15300
H358        H  0.65596030  0.20434591  0.67974829     0.14000
H359        H  0.53297655  0.07290393  0.60424846     0.11700
H360        H  0.57990432  0.09367360  0.55045657     0.13700
C361        C  0.89866140  0.40660116  0.61511573     0.19800
C362        C  0.88552969  0.41178504  0.64150306    -0.18300
C363        C  0.86298945  0.38507281  0.65877946    -0.10600
C364        C  0.85327144  0.35249020  0.65007021     0.22100
C365        C  0.86694842  0.34736863  0.62401548    -0.19900
C366        C  0.88926148  0.37407839  0.60658054    -0.10700
C367        C  0.83031777  0.32345746  0.66834524    -0.14900
C368        C  0.80736557  0.32324956  0.68662001    -0.28800
C369        C  0.92270834  0.43576148  0.59765996    -0.03000
C370        C  0.92653276  0.43528527  0.56773862    -0.39600
H371        H  0.89266826  0.43663653  0.64872176     0.13200
H372        H  0.85388719  0.39013467  0.67923764     0.12800
H373        H  0.86030995  0.32256655  0.61710716     0.12300
H374        H  0.89960384  0.36916854  0.58687814     0.12500
H375        H  0.83201078  0.30122088  0.66619402     0.15300
H376        H  0.80417278  0.34462964  0.68792367     0.14000
H377        H  0.93662671  0.45896561  0.60977073     0.11700
H378        H  0.91344980  0.41223066  0.55534293     0.13700
C379        C  0.84117478  0.32674126  0.85387740     0.19800
C380        C  0.83104319  0.33581098  0.88009076    -0.18300
C381        C  0.85405887  0.35604010  0.90167980    -0.10600
C382        C  0.88789764  0.36798398  0.89731439     0.22100
C383        C  0.89798781  0.35815371  0.87154935    -0.19900
C384        C  0.87494246  0.33790167  0.84990765    -0.10700
C385        C  0.91333380  0.39180719  0.91844239    -0.14900
C386        C  0.90935170  0.41431898  0.93377833    -0.28800
C387        C  0.81607462  0.30782004  0.83042227    -0.03000
C388        C  0.81988753  0.29039003  0.80824211    -0.39600
H389        H  0.80518498  0.32751247  0.88373097     0.13200
H390        H  0.84528534  0.36240898  0.92163107     0.12800
H391        H  0.92393631  0.36714473  0.86763055     0.12300
H392        H  0.88386638  0.33213620  0.82973065     0.12500
H393        H  0.93741813  0.39369690  0.91853771     0.15300
H394        H  0.88657124  0.41487722  0.93156622     0.14000
H395        H  0.79313968  0.30828367  0.83159732     0.11700
H396        H  0.84156634  0.28772893  0.80739400     0.13700
C397        C  0.50068609  0.16622022  0.64909791     0.19800
C398        C  0.47367062  0.13586912  0.64019491    -0.18300
C399        C  0.47608802  0.11825249  0.61591445    -0.10600
C400        C  0.50584312  0.13058843  0.59992245     0.22100
C401        C  0.53259599  0.16138997  0.60827858    -0.19900
C402        C  0.53014563  0.17907834  0.63253714    -0.10700
C403        C  0.51036091  0.11206418  0.57491087    -0.14900
C404        C  0.49057308  0.07942801  0.57027012    -0.28800
C405        C  0.49646524  0.18380326  0.67509893    -0.03000
C406        C  0.52141652  0.20972468  0.68935313    -0.39600
H407        H  0.45050226  0.12562151  0.65216409     0.13200
H408        H  0.45440919  0.09521656  0.60983278     0.12800
H409        H  0.55570692  0.17165652  0.59621330     0.12300
H410        H  0.55133303  0.20281146  0.63784496     0.12500
H411        H  0.53213761  0.12529211  0.56096456     0.15300
H412        H  0.46826417  0.06539499  0.58317904     0.14000
H413        H  0.47144295  0.17476255  0.68299229     0.11700
H414        H  0.54676647  0.21917728  0.68255533     0.13700
C415        C  0.50538391  0.40596521  0.89707422     0.19800
C416        C  0.47944151  0.37332121  0.89394399    -0.18300
C417        C  0.48140414  0.35199455  0.87299304    -0.10600
C418        C  0.50966694  0.36300786  0.85493425     0.22100
C419        C  0.53582797  0.39545331  0.85865451    -0.19900
C420        C  0.53382704  0.41666231  0.87945307    -0.10700
C421        C  0.51366383  0.34180466  0.83239259    -0.14900
C422        C  0.48931683  0.31226340  0.82273190    -0.28800
C423        C  0.50338403  0.42782705  0.92015180    -0.03000
C424        C  0.52008616  0.46083142  0.91749081    -0.39600
H425        H  0.45759719  0.36431867  0.90773790     0.13200
H426        H  0.46096773  0.32698370  0.87150858     0.12800
H427        H  0.55810758  0.40448419  0.84546492     0.12300
H428        H  0.55500434  0.44113955  0.88210153     0.12500
H429        H  0.53802476  0.35161979  0.82257219     0.15300
H430        H  0.46445420  0.30180747  0.83130657     0.14000
H431        H  0.48917497  0.41659189  0.94030553     0.11700
H432        H  0.53337418  0.47194671  0.89693346     0.13700
C433        C  0.49735135  0.39039712  0.60527043     0.19800
C434        C  0.46888429  0.36291276  0.61653997    -0.18300
C435        C  0.47110362  0.34420678  0.64005700    -0.10600
C436        C  0.50196283  0.35311718  0.65304201     0.22100
C437        C  0.53017018  0.38099135  0.64201976    -0.19900
C438        C  0.52794626  0.39938581  0.61861998    -0.10700
C439        C  0.50672181  0.33468531  0.67789624    -0.14900
C440        C  0.48273681  0.30764251  0.69154937    -0.28800
C441        C  0.49499757  0.41076127  0.58083334    -0.03000
C442        C  0.51993144  0.42701729  0.56144304    -0.39600
H443        H  0.44495983  0.35575779  0.60695843     0.13200
H444        H  0.44864798  0.32302331  0.64781343     0.12800
H445        H  0.55423088  0.38878749  0.65166387     0.12300
H446        H  0.55030524  0.42109696  0.61148077     0.12500
H447        H  0.53200953  0.34401896  0.68526646     0.15300
H448        H  0.45712028  0.29718873  0.68505444     0.14000
H449        H  0.47363357  0.41399846  0.58000456     0.11700
H450        H  0.54055444  0.42257872  0.56201729     0.13700
C451        C  0.48282034  0.85030436  0.35238320     0.19800
C452        C  0.45612977  0.85580129  0.35473810    -0.18300
C453        C  0.45728245  0.87950611  0.37457703    -0.10600
C454        C  0.48517587  0.89822257  0.39285480     0.22100
C455        C  0.51202219  0.89302154  0.39042217    -0.19900
C456        C  0.51080746  0.86908826  0.37067961    -0.10700
C457        C  0.48712596  0.92399147  0.41374922    -0.14900
C458        C  0.45999179  0.92168452  0.42620857    -0.28800
C459        C  0.48018957  0.82483437  0.33060257    -0.03000
C460        C  0.50603972  0.82209382  0.32148896    -0.39600
H461        H  0.43435611  0.84193865  0.34089183     0.13200
H462        H  0.43648059  0.88348068  0.37505775     0.12800
H463        H  0.53382410  0.90720958  0.40414649     0.12300
H464        H  0.53174301  0.86536421  0.37027122     0.12500
H465        H  0.51114779  0.94536594  0.41846581     0.15300
H466        H  0.43634770  0.89951625  0.42236974     0.14000
H467        H  0.45610453  0.80844213  0.32076849     0.11700
H468        H  0.53060678  0.83879052  0.32996358     0.13700
C469        C  0.47339181  0.65014396  0.15159792     0.19800
C470        C  0.50182893  0.64862062  0.14415614    -0.18300
C471        C  0.50116297  0.62818462  0.12089972    -0.10600
C472        C  0.47191449  0.60825882  0.10470001     0.22100
C473        C  0.44356491  0.60970418  0.11216211    -0.19900
C474        C  0.44426097  0.63028576  0.13535145    -0.10700
C475        C  0.46952181  0.58517844  0.08041923    -0.14900
C476        C  0.49191733  0.57559559  0.07580351    -0.28800
C477        C  0.47283260  0.67164186  0.17616533    -0.03000
C478        C  0.50011998  0.69548134  0.18983361    -0.39600
H479        H  0.52475706  0.66272006  0.15623680     0.13200
H480        H  0.52378975  0.62840337  0.11585072     0.12800
H481        H  0.42060943  0.59453117  0.10021770     0.12300
H482        H  0.42191117  0.63069751  0.14059184     0.12500
H483        H  0.44729263  0.57401860  0.06671603     0.15300
H484        H  0.51491697  0.58672949  0.08817136     0.14000
H485        H  0.44898624  0.66808867  0.18289188     0.11700
H486        H  0.52436168  0.70039080  0.18319434     0.13700
C487        C  0.49494197  0.60645368  0.39392753     0.19800
C488        C  0.47326455  0.61896266  0.39333476    -0.18300
C489        C  0.47807782  0.64392689  0.37333701    -0.10600
C490        C  0.50476186  0.65696534  0.35324579     0.22100
C491        C  0.52682444  0.64500237  0.35416798    -0.19900
C492        C  0.52195656  0.61992663  0.37407728    -0.10700
C493        C  0.51063024  0.68327414  0.33136842    -0.14900
C494        C  0.48631421  0.68755921  0.32034090    -0.28800
C495        C  0.48791241  0.57925538  0.41531800    -0.03000
C496        C  0.50543422  0.56367252  0.41728811    -0.37200
H497        H  0.45237341  0.60930759  0.40840366     0.13200
H498        H  0.46107797  0.65317658  0.37401022     0.12800
H499        H  0.54771864  0.65479966  0.33909240     0.12300
H500        H  0.53951141  0.61143720  0.37353413     0.12500
H501        H  0.53552904  0.69845791  0.32285931     0.15300
H502        H  0.46099031  0.67132315  0.32721513     0.14000
H503        H  0.46670447  0.57113231  0.42993713     0.11700
H504        H  0.52791189  0.57211007  0.40463285     0.13700
C505        C  0.60567642  0.09932863  0.88080227     0.19800
C506        C  0.61079013  0.09039546  0.85208682    -0.18300
C507        C  0.63489753  0.11401702  0.83325342    -0.10600
C508        C  0.65377569  0.14711459  0.84276531     0.22100
C509        C  0.64871562  0.15589418  0.87152042    -0.19900
C510        C  0.62511404  0.13226495  0.89045753    -0.10700
C511        C  0.67650492  0.17372607  0.82244374    -0.14900
C512        C  0.69266414  0.16927947  0.79968870    -0.28800
C513        C  0.57804456  0.07496312  0.89934813    -0.03000
C514        C  0.57917943  0.07615891  0.92943350    -0.39600
H515        H  0.59572868  0.06524539  0.84405953     0.13200
H516        H  0.63762215  0.10664273  0.81089027     0.12800
H517        H  0.66262610  0.18132659  0.87913775     0.12300
H518        H  0.62110654  0.14018783  0.91210520     0.12500
H519        H  0.68040007  0.19832257  0.82674571     0.15300
H520        H  0.69112424  0.14557221  0.79620940     0.14000
H521        H  0.55583107  0.05627692  0.88809350     0.11700
H522        H  0.60211229  0.09256847  0.94101208     0.13700
C523        C  0.51585663  0.16617271  0.85716250     0.19800
C524        C  0.48980075  0.13960377  0.87221422    -0.18300
C525        C  0.49586957  0.12085924  0.89285302    -0.10600
C526        C  0.52830491  0.12810555  0.89882740     0.22100
C527        C  0.55446796  0.15508583  0.88435687    -0.19900
C528        C  0.54841025  0.17378886  0.86358334    -0.10700
C529        C  0.53573300  0.10831456  0.92014438    -0.14900
C530        C  0.51459247  0.07611679  0.92556782    -0.28800
C531        C  0.50761200  0.18426787  0.83442754    -0.03000
C532        C  0.52981209  0.21286078  0.82152985    -0.39600
H533        H  0.46452346  0.13323898  0.86795663     0.13200
H534        H  0.47506623  0.10099556  0.90428063     0.12800
H535        H  0.57969046  0.16130491  0.88866788     0.12300
H536        H  0.56936488  0.19361569  0.85236926     0.12500
H537        H  0.55974838  0.12044954  0.93098241     0.15300
H538        H  0.49033509  0.06394712  0.91526765     0.14000
H539        H  0.48182571  0.17347169  0.82807344     0.11700
H540        H  0.55560259  0.22495242  0.82786503     0.13700
C541        C  0.49238160  0.84661298  0.15265261     0.19800
C542        C  0.47924918  0.83765546  0.12361422    -0.18300
C543        C  0.47979871  0.86128994  0.10420161    -0.10600
C544        C  0.49286454  0.89420331  0.11381966     0.22100
C545        C  0.50553748  0.90302199  0.14301915    -0.19900
C546        C  0.50568266  0.87954597  0.16219052    -0.10700
C547        C  0.49109838  0.91903491  0.09469266    -0.14900
C548        C  0.49298448  0.91873804  0.06464958    -0.28800
C549        C  0.48959674  0.82080087  0.17344067    -0.03000
C550        C  0.51333279  0.82610966  0.19334405    -0.39600
H551        H  0.46836681  0.81227437  0.11603120     0.13200
H552        H  0.46889522  0.85351307  0.08212231     0.12800
H553        H  0.51515636  0.92809362  0.15105313     0.12300
H554        H  0.51511708  0.88687896  0.18479074     0.12500
H555        H  0.48792681  0.93807455  0.10559672     0.15300
H556        H  0.49935794  0.90204483  0.05349262     0.14000
H557        H  0.46759149  0.79652846  0.17192600     0.11700
H558        H  0.53656098  0.84936101  0.19331674     0.13700
C559        C  0.39133817  0.87187122  0.09158833     0.19800
C560        C  0.38685745  0.84115354  0.10039497    -0.18300
C561        C  0.36258031  0.82166116  0.12119331    -0.10600
C562        C  0.34212228  0.83254783  0.13379645     0.22100
C563        C  0.34597634  0.86285616  0.12429854    -0.19900
C564        C  0.37027705  0.88235915  0.10346741    -0.10700
C565        C  0.31651627  0.81324267  0.15672262    -0.14900
C566        C  0.31573313  0.78864355  0.17295317    -0.28800
C567        C  0.41812694  0.89185197  0.06996173    -0.03000
C568        C  0.43193786  0.92476793  0.06681491    -0.39600
H569        H  0.40245505  0.83227929  0.09133179     0.13200
H570        H  0.35993607  0.79807134  0.12696548     0.12800
H571        H  0.33028219  0.87166573  0.13324808     0.12300
H572        H  0.37211538  0.90534079  0.09662879     0.12500
H573        H  0.29849083  0.82076494  0.16150608     0.15300
H574        H  0.33415220  0.78142371  0.16969293     0.14000
H575        H  0.42808572  0.87909280  0.05710236     0.11700
H576        H  0.42208966  0.93818034  0.07863263     0.13700
loop_ 
_geom_bond_atom_site_label_1 
_geom_bond_atom_site_label_2 
_geom_bond_distance 
_geom_bond_site_symmetry_2 
_ccdc_geom_bond_type 
C1            S2   1.795       .  S
C1            S5   1.795       .  S
C1            C9   1.349   1_546  D
S2            C3   1.791       .  S
C3            C4   1.350       .  D
C3          C530   1.488       .  S
C4            S5   1.790       .  S
C4          C514   1.475       .  S
C6           S10   1.790       .  S
C6            C7   1.350       .  D
C6          C548   1.480       .  S
C7            S8   1.790       .  S
C7          C568   1.487       .  S
S8            C9   1.796       .  S
C9           S10   1.795       .  S
O11         Cu19   2.026       .  S
O11          C21   1.281       .  A
O12         Cu19   2.023       .  S
O12          C22   1.280       .  A
O13         Cu19   2.005       .  S
O13          C23   1.276       .  A
O14         Cu19   2.003       .  S
O14          C24   1.277       .  A
O15         Cu20   2.017       .  S
O15          C24   1.278       .  A
O16         Cu20   2.020       .  S
O16          C23   1.280       .  A
O17         Cu20   1.998       .  S
O17          C22   1.276       .  A
O18         Cu20   1.993       .  S
O18          C21   1.275       .  A
Cu19        Cu20   2.374       .  S
C21         C460   1.475       .  S
C22         C478   1.475       .  S
C23         C494   1.477       .  S
C24         C550   1.474       .  S
O25         Cu33   2.006       .  S
O25          C35   1.279       .  A
O26         Cu33   2.007       .  S
O26          C36   1.276       .  A
O27         Cu33   2.005       .  S
O27          C37   1.276       .  A
O28         Cu33   2.003       .  S
O28          C38   1.278       .  A
O29         Cu34   2.010       .  S
O29          C38   1.277       .  A
O30         Cu34   2.010       .  S
O30          C37   1.279       .  A
O31         Cu34   2.023       .  S
O31          C36   1.280       .  A
O32         Cu34   2.021       .  S
O32          C35   1.278       .  A
Cu33        Cu34   2.373       .  S
C35         C440   1.482       .  S
C36         C532   1.480       .  S
C37         C406   1.475       .  S
C38         C422   1.475       .  S
O39         Cu47   2.018       .  S
O39          C49   1.280       .  A
O40         Cu47   2.021       .  S
O40          C50   1.279       .  A
O41         Cu47   2.012       .  S
O41          C51   1.277       .  A
O42         Cu47   2.015       .  S
O42          C52   1.279       .  A
O43         Cu48   2.008       .  S
O43          C52   1.277       .  A
O44         Cu48   1.999       .  S
O44          C51   1.278       .  A
O45         Cu48   1.997       .  S
O45          C50   1.277       .  A
O46         Cu48   2.005       .  S
O46          C49   1.276       .  A
Cu47        Cu48   2.374       .  S
C49         C350   1.477       .  S
C50         C388   1.477       .  S
C51         C512   1.473       .  S
C52         C368   1.477       .  S
O53         Cu61   2.002       .  S
O53          C63   1.276       .  A
O54         Cu61   1.996       .  S
O54          C64   1.275       .  A
O55         Cu61   2.011       .  S
O55          C65   1.279       .  A
O56         Cu61   2.010       .  S
O56          C66   1.277       .  A
O57         Cu62   2.014       .  S
O57          C66   1.279       .  A
O58         Cu62   2.009       .  S
O58          C65   1.277       .  A
O59         Cu62   2.026       .  S
O59          C64   1.280       .  A
O60         Cu62   2.023       .  S
O60          C63   1.280       .  A
Cu61        Cu62   2.374       .  S
C63         C316   1.476       .  S
C64         C298   1.473       .  S
C65         C334   1.475       .  S
C66         C566   1.477       .  S
C67          S68   1.796       .  S
C67          S71   1.798       .  S
C67          C75   1.350   1_656  D
S68          C69   1.787       .  S
C69          C70   1.348       .  D
C69         C280   1.485       .  S
C70          S71   1.795       .  S
C70         C386   1.482       .  S
C72          S76   1.792       .  S
C72          C73   1.349       .  D
C72         C260   1.478       .  S
C73          S74   1.788       .  S
C73         C314   1.487       .  S
S74          C75   1.796       .  S
C75          S76   1.796       .  S
C77          S78   1.797       .  S
C77          S81   1.793       .  S
C77          C85   1.351   1_655  D
S78          C79   1.798       .  S
C79          C80   1.353       .  D
C79         C370   1.489       .  S
C80          S81   1.788       .  S
C80         C244   1.484       .  S
C82          S86   1.784       .  S
C82          C83   1.346       .  D
C82         C332   1.483       .  S
C83          S84   1.798       .  S
C83         C224   1.485       .  S
S84          C85   1.801       .  S
C85          S86   1.799       .  S
O87         Cu95   2.006       .  S
O87          C97   1.276       .  A
O88         Cu95   2.010       .  S
O88          C98   1.279       .  A
O89         Cu95   2.003       .  S
O89          C99   1.278       .  A
O90         Cu95   2.007       .  S
O90         C100   1.277       .  A
O91         Cu96   2.012       .  S
O91         C100   1.279       .  A
O92         Cu96   2.019       .  S
O92          C99   1.278       .  A
O93         Cu96   2.011       .  S
O93          C98   1.277       .  A
O94         Cu96   2.011       .  S
O94          C97   1.279       .  A
Cu95        Cu96   2.374       .  S
C97         C206   1.474       .  S
C98         C262   1.473       .  S
C99         C226   1.479       .  S
C100        C188   1.475       .  S
O101       Cu109   2.000       .  S
O101        C111   1.275       .  A
O102       Cu109   2.009       .  S
O102        C112   1.277       .  A
O103       Cu109   2.006       .  S
O103        C113   1.278       .  A
O104       Cu109   2.007       .  S
O104        C114   1.277       .  A
O105       Cu110   2.007       .  S
O105        C114   1.278       .  A
O106       Cu110   2.002       .  S
O106        C113   1.276       .  A
O107       Cu110   2.025       .  S
O107        C112   1.280       .  A
O108       Cu110   2.023       .  S
O108        C111   1.280       .  A
Cu109      Cu110   2.375       .  S
C111        C242   1.475       .  S
C112        C154   1.479       .  S
C113        C170   1.469       .  S
C114        C278   1.473       .  S
C115        S116   1.801       .  S
C115        S119   1.796       .  S
C115        C123   1.352   1_556  D
S116        C117   1.793       .  S
C117        C118   1.349       .  D
C117        C152   1.494       .  S
C118        S119   1.795       .  S
C118        C424   1.481       .  S
C120        S124   1.794       .  S
C120        C121   1.353       .  D
C120        C190   1.489       .  S
C121        S122   1.793       .  S
C121        C476   1.486       .  S
S122        C123   1.795       .  S
C123        S124   1.798       .  S
C125        S126   1.805       .  S
C125        S129   1.798       .  S
C125        C133   1.351       .  D
S126        C127   1.795       .  S
C127        C128   1.347       .  D
C127        C442   1.488       .  S
C128        S129   1.785       .  S
C128        C172   1.482       .  S
C130        S134   1.791       .  S
C130        C131   1.354       .  D
C130        C496   1.487       .  S
C131        S132   1.795       .  S
C131        C208   1.487       .  S
S132        C133   1.793       .  S
C133        S134   1.796       .  S
C135        S136   1.796       .  S
C135        S139   1.793       .  S
C135        C143   1.351   1_545  D
S136        C137   1.795       .  S
C137        C138   1.353       .  D
C137        C352   1.488       .  S
C138        S139   1.789       .  S
C138        C404   1.482       .  S
C140        S144   1.787       .  S
C140        C141   1.348       .  D
C140        C296   1.489       .  S
C141        S142   1.798       .  S
C141        C458   1.486       .  S
S142        C143   1.799       .  S
C143        S144   1.798       .  S
C145        C153   1.491       .  S
C145        C146   1.404       .  A
C145        C150   1.406       .  A
C146        C147   1.403       .  A
C146        H155   1.083       .  S
C147        C148   1.409       .  A
C147        H156   1.080       .  S
C148        C151   1.492       .  S
C148        C149   1.405       .  A
C149        C150   1.399       .  A
C149        H157   1.083       .  S
C150        H158   1.082       .  S
C151        C152   1.350       .  D
C151        H159   1.087       .  S
C152        H160   1.083       .  S
C153        C154   1.347       .  D
C153        H161   1.087       .  S
C154        H162   1.086       .  S
C163        C171   1.478       .  S
C163        C164   1.402       .  A
C163        C168   1.407       .  A
C164        C165   1.395       .  A
C164        H173   1.084       .  S
C165        C166   1.405       .  A
C165        H174   1.082       .  S
C166        C169   1.478       .  S
C166        C167   1.402       .  A
C167        C168   1.398       .  A
C167        H175   1.084       .  S
C168        H176   1.082       .  S
C169        C170   1.343       .  D
C169        H177   1.087       .  S
C170        H178   1.086       .  S
C171        C172   1.344       .  D
C171        H179   1.088       .  S
C172        H180   1.085       .  S
C181        C189   1.481       .  S
C181        C182   1.403       .  A
C181        C186   1.406       .  A
C182        C183   1.397       .  A
C182        H191   1.084       .  S
C183        C184   1.406       .  A
C183        H192   1.083       .  S
C184        C187   1.483       .  S
C184        C185   1.403       .  A
C185        C186   1.400       .  A
C185        H193   1.083       .  S
C186        H194   1.082       .  S
C187        C188   1.345       .  D
C187        H195   1.087       .  S
C188        H196   1.086       .  S
C189        C190   1.346       .  D
C189        H197   1.086       .  S
C190        H198   1.085       .  S
C199        C207   1.479       .  S
C199        C200   1.401       .  A
C199        C204   1.406       .  A
C200        C201   1.397       .  A
C200        H209   1.084       .  S
C201        C202   1.407       .  A
C201        H210   1.082       .  S
C202        C205   1.483       .  S
C202        C203   1.403       .  A
C203        C204   1.399       .  A
C203        H211   1.083       .  S
C204        H212   1.083       .  S
C205        C206   1.344       .  D
C205        H213   1.087       .  S
C206        H214   1.086       .  S
C207        C208   1.344       .  D
C207        H215   1.085       .  S
C208        H216   1.086       .  S
C217        C225   1.490       .  S
C217        C218   1.403       .  A
C217        C222   1.410       .  A
C218        C219   1.394       .  A
C218        H227   1.084       .  S
C219        C220   1.408       .  A
C219        H228   1.082       .  S
C220        C223   1.489       .  S
C220        C221   1.403       .  A
C221        C222   1.402       .  A
C221        H229   1.083       .  S
C222        H230   1.079       .  S
C223        C224   1.343       .  D
C223        H231   1.086       .  S
C224        H232   1.085       .  S
C225        C226   1.347       .  D
C225        H233   1.087       .  S
C226        H234   1.083       .  S
C235        C243   1.488       .  S
C235        C236   1.404       .  A
C235        C240   1.409       .  A
C236        C237   1.400       .  A
C236        H245   1.083       .  S
C237        C238   1.407       .  A
C237        H246   1.082       .  S
C238        C241   1.483       .  S
C238        C239   1.400       .  A
C239        C240   1.396       .  A
C239        H247   1.083       .  S
C240        H248   1.080       .  S
C241        C242   1.343       .  D
C241        H249   1.087       .  S
C242        H250   1.086       .  S
C243        C244   1.346       .  D
C243        H251   1.087       .  S
C244        H252   1.083       .  S
C253        C261   1.475       .  S
C253        C254   1.400       .  A
C253        C258   1.404       .  A
C254        C255   1.396       .  A
C254        H263   1.083       .  S
C255        C256   1.406       .  A
C255        H264   1.082       .  S
C256        C259   1.480       .  S
C256        C257   1.403       .  A
C257        C258   1.400       .  A
C257        H265   1.083       .  S
C258        H266   1.083       .  S
C259        C260   1.343       .  D
C259        H267   1.087       .  S
C260        H268   1.086       .  S
C261        C262   1.341       .  D
C261        H269   1.087       .  S
C262        H270   1.087       .  S
C271        C279   1.480       .  S
C271        C272   1.402       .  A
C271        C276   1.406       .  A
C272        C273   1.396       .  A
C272        H281   1.084       .  S
C273        C274   1.408       .  A
C273        H282   1.081       .  S
C274        C277   1.483       .  S
C274        C275   1.403       .  A
C275        C276   1.398       .  A
C275        H283   1.084       .  S
C276        H284   1.082       .  S
C277        C278   1.345       .  D
C277        H285   1.087       .  S
C278        H286   1.085       .  S
C279        C280   1.345       .  D
C279        H287   1.086       .  S
C280        H288   1.085       .  S
C289        C297   1.483       .  S
C289        C290   1.403       .  A
C289        C294   1.405       .  A
C290        C291   1.402       .  A
C290        H299   1.083       .  S
C291        C292   1.408       .  A
C291        H300   1.081       .  S
C292        C295   1.485       .  S
C292        C293   1.404       .  A
C293        C294   1.395       .  A
C293        H301   1.084       .  S
C294        H302   1.083       .  S
C295        C296   1.348       .  D
C295        H303   1.088       .  S
C296        H304   1.083       .  S
C297        C298   1.344       .  D
C297        H305   1.087       .  S
C298        H306   1.087       .  S
C307        C315   1.484       .  S
C307        C308   1.402       .  A
C307        C312   1.407       .  A
C308        C309   1.399       .  A
C308        H317   1.083       .  S
C309        C310   1.408       .  A
C309        H318   1.081       .  S
C310        C313   1.487       .  S
C310        C311   1.404       .  A
C311        C312   1.399       .  A
C311        H319   1.083       .  S
C312        H320   1.082       .  S
C313        C314   1.348       .  D
C313        H321   1.086       .  S
C314        H322   1.084       .  S
C315        C316   1.344       .  D
C315        H323   1.087       .  S
C316        H324   1.086       .  S
C325        C333   1.483       .  S
C325        C326   1.403       .  A
C325        C330   1.406       .  A
C326        C327   1.399       .  A
C326        H335   1.083       .  S
C327        C328   1.406       .  A
C327        H336   1.083       .  S
C328        C331   1.480       .  S
C328        C329   1.402       .  A
C329        C330   1.397       .  A
C329        H337   1.083       .  S
C330        H338   1.082       .  S
C331        C332   1.344       .  D
C331        H339   1.088       .  S
C332        H340   1.085       .  S
C333        C334   1.344       .  D
C333        H341   1.087       .  S
C334        H342   1.086       .  S
C343        C351   1.482       .  S
C343        C344   1.402       .  A
C343        C348   1.405       .  A
C344        C345   1.398       .  A
C344        H353   1.084       .  S
C345        C346   1.409       .  A
C345        H354   1.082       .  S
C346        C349   1.487       .  S
C346        C347   1.404       .  A
C347        C348   1.399       .  A
C347        H355   1.083       .  S
C348        H356   1.082       .  S
C349        C350   1.345       .  D
C349        H357   1.087       .  S
C350        H358   1.085       .  S
C351        C352   1.346       .  D
C351        H359   1.086       .  S
C352        H360   1.085       .  S
C361        C369   1.485       .  S
C361        C362   1.404       .  A
C361        C366   1.406       .  A
C362        C363   1.399       .  A
C362        H371   1.084       .  S
C363        C364   1.408       .  A
C363        H372   1.082       .  S
C364        C367   1.487       .  S
C364        C365   1.404       .  A
C365        C366   1.399       .  A
C365        H373   1.083       .  S
C366        H374   1.082       .  S
C367        C368   1.346       .  D
C367        H375   1.087       .  S
C368        H376   1.085       .  S
C369        C370   1.348       .  D
C369        H377   1.086       .  S
C370        H378   1.084       .  S
C379        C387   1.485       .  S
C379        C380   1.404       .  A
C379        C384   1.407       .  A
C380        C381   1.397       .  A
C380        H389   1.084       .  S
C381        C382   1.406       .  A
C381        H390   1.082       .  S
C382        C385   1.485       .  S
C382        C383   1.403       .  A
C383        C384   1.399       .  A
C383        H391   1.084       .  S
C384        H392   1.081       .  S
C385        C386   1.343       .  D
C385        H393   1.087       .  S
C386        H394   1.086       .  S
C387        C388   1.347       .  D
C387        H395   1.087       .  S
C388        H396   1.085       .  S
C397        C405   1.488       .  S
C397        C398   1.403       .  A
C397        C402   1.409       .  A
C398        C399   1.397       .  A
C398        H407   1.084       .  S
C399        C400   1.408       .  A
C399        H408   1.080       .  S
C400        C403   1.489       .  S
C400        C401   1.403       .  A
C401        C402   1.399       .  A
C401        H409   1.084       .  S
C402        H410   1.080       .  S
C403        C404   1.346       .  D
C403        H411   1.087       .  S
C404        H412   1.082       .  S
C405        C406   1.346       .  D
C405        H413   1.087       .  S
C406        H414   1.083       .  S
C415        C423   1.484       .  S
C415        C416   1.402       .  A
C415        C420   1.407       .  A
C416        C417   1.401       .  A
C416        H425   1.084       .  S
C417        C418   1.410       .  A
C417        H426   1.080       .  S
C418        C421   1.486       .  S
C418        C419   1.402       .  A
C419        C420   1.393       .  A
C419        H427   1.084       .  S
C420        H428   1.081       .  S
C421        C422   1.345       .  D
C421        H429   1.087       .  S
C422        H430   1.083       .  S
C423        C424   1.342       .  D
C423        H431   1.087       .  S
C424        H432   1.085       .  S
C433        C441   1.491       .  S
C433        C434   1.404       .  A
C433        C438   1.407       .  A
C434        C435   1.406       .  A
C434        H443   1.083       .  S
C435        C436   1.412       .  A
C435        H444   1.080       .  S
C436        C439   1.491       .  S
C436        C437   1.402       .  A
C437        C438   1.392       .  A
C437        H445   1.084       .  S
C438        H446   1.080       .  S
C439        C440   1.348       .  D
C439        H447   1.087       .  S
C440        H448   1.083       .  S
C441        C442   1.344       .  D
C441        H449   1.086       .  S
C442        H450   1.086       .  S
C451        C459   1.490       .  S
C451        C452   1.402       .  A
C451        C456   1.412       .  A
C452        C453   1.395       .  A
C452        H461   1.084       .  S
C453        C454   1.408       .  A
C453        H462   1.081       .  S
C454        C457   1.487       .  S
C454        C455   1.401       .  A
C455        C456   1.400       .  A
C455        H463   1.083       .  S
C456        H464   1.080       .  S
C457        C458   1.342       .  D
C457        H465   1.086       .  S
C458        H466   1.085       .  S
C459        C460   1.344       .  D
C459        H467   1.087       .  S
C460        H468   1.083       .  S
C469        C477   1.493       .  S
C469        C470   1.410       .  A
C469        C474   1.404       .  A
C470        C471   1.397       .  A
C470        H479   1.079       .  S
C471        C472   1.407       .  A
C471        H480   1.079       .  S
C472        C475   1.490       .  S
C472        C473   1.404       .  A
C473        C474   1.399       .  A
C473        H481   1.084       .  S
C474        H482   1.083       .  S
C475        C476   1.348       .  D
C475        H483   1.087       .  S
C476        H484   1.082       .  S
C477        C478   1.346       .  D
C477        H485   1.087       .  S
C478        H486   1.082       .  S
C487        C495   1.493       .  S
C487        C488   1.405       .  A
C487        C492   1.410       .  A
C488        C489   1.399       .  A
C488        H497   1.083       .  S
C489        C490   1.407       .  A
C489        H498   1.082       .  S
C490        C493   1.488       .  S
C490        C491   1.402       .  A
C491        C492   1.400       .  A
C491        H499   1.083       .  S
C492        H500   1.079       .  S
C493        C494   1.346       .  D
C493        H501   1.087       .  S
C494        H502   1.085       .  S
C495        C496   1.348       .  D
C495        H503   1.087       .  S
C496        H504   1.081       .  S
C505        C513   1.479       .  S
C505        C506   1.403       .  A
C505        C510   1.406       .  A
C506        C507   1.400       .  A
C506        H515   1.083       .  S
C507        C508   1.407       .  A
C507        H516   1.082       .  S
C508        C511   1.479       .  S
C508        C509   1.401       .  A
C509        C510   1.393       .  A
C509        H517   1.084       .  S
C510        H518   1.082       .  S
C511        C512   1.343       .  D
C511        H519   1.088       .  S
C512        H520   1.086       .  S
C513        C514   1.342       .  D
C513        H521   1.087       .  S
C514        H522   1.086       .  S
C523        C531   1.493       .  S
C523        C524   1.404       .  A
C523        C528   1.411       .  A
C524        C525   1.398       .  A
C524        H533   1.083       .  S
C525        C526   1.407       .  A
C525        H534   1.081       .  S
C526        C529   1.488       .  S
C526        C527   1.403       .  A
C527        C528   1.401       .  A
C527        H535   1.083       .  S
C528        H536   1.080       .  S
C529        C530   1.348       .  D
C529        H537   1.085       .  S
C530        H538   1.084       .  S
C531        C532   1.347       .  D
C531        H539   1.087       .  S
C532        H540   1.083       .  S
C541        C549   1.479       .  S
C541        C542   1.402       .  A
C541        C546   1.405       .  A
C542        C543   1.398       .  A
C542        H551   1.083       .  S
C543        C544   1.407       .  A
C543        H552   1.083       .  S
C544        C547   1.480       .  S
C544        C545   1.402       .  A
C545        C546   1.398       .  A
C545        H553   1.083       .  S
C546        H554   1.083       .  S
C547        C548   1.343       .  D
C547        H555   1.087       .  S
C548        H556   1.086       .  S
C549        C550   1.344       .  D
C549        H557   1.087       .  S
C550        H558   1.086       .  S
C559        C567   1.487       .  S
C559        C560   1.403       .  A
C559        C564   1.408       .  A
C560        C561   1.398       .  A
C560        H569   1.084       .  S
C561        C562   1.409       .  A
C561        H570   1.080       .  S
C562        C565   1.491       .  S
C562        C563   1.405       .  A
C563        C564   1.399       .  A
C563        H571   1.084       .  S
C564        H572   1.081       .  S
C565        C566   1.348       .  D
C565        H573   1.087       .  S
C566        H574   1.083       .  S
C567        C568   1.347       .  D
C567        H575   1.087       .  S
C568        H576   1.083       .  S
