geometry optimzed in LAMMPS
_audit_creation_date              2020-11-30 
_audit_creation_method            'lammps2cif' 
_symmetry_space_group_name_H-M    'P1' 
_symmetry_Int_Tables_number       1 
_symmetry_cell_setting            triclinic 
loop_ 
_symmetry_equiv_pos_as_xyz 
  x,y,z 
_cell_length_a                    29.27443024 
_cell_length_b                    28.838378070473457 
_cell_length_c                    26.89106531796006 
_cell_angle_alpha                 90.22343856647068 
_cell_angle_beta                  90.93138017135756 
_cell_angle_gamma                 89.084392437458 
loop_ 
_atom_site_label 
_atom_site_type_symbol 
_atom_site_fract_x 
_atom_site_fract_y 
_atom_site_fract_z 
_atom_site_charge 
O1          O  0.95988477  0.95016036  0.27514820    -0.71900
O2          O  0.05301836  0.04272295  0.27514208    -0.71900
O3          O  0.96025208  0.04404528  0.27185780    -0.72000
O4          O  0.05211490  0.94979241  0.27944762    -0.72000
O5          O  0.05380031  0.94662829  0.19634573    -0.72000
O6          O  0.96158570  0.04093641  0.18880539    -0.71900
O7          O  0.05418454  0.03940603  0.19214656    -0.71900
O8          O  0.96173608  0.94721162  0.19218827    -0.72000
Ni9        Ni  0.00617379  0.99687794  0.27842670     1.25400
Ni10       Ni  0.00781122  0.99349649  0.18937967     1.25400
C11         C  0.94596964  0.93326896  0.23351133     0.90300
C12         C  0.06938881  0.05536807  0.23350849     0.90200
C13         C  0.94572937  0.05761312  0.22923880     0.90200
C14         C  0.06809777  0.93330859  0.23915634     0.90400
O15         O  0.18037304  0.32202776  0.26378856    -0.78400
O16         O  0.25496193  0.16883942  0.12545558    -0.63100
O17         O  0.22814603  0.24058291  0.23978367    -1.09700
C18         C  0.34786640  0.33414309  0.18003409     1.08500
O19         O  0.32903810  0.17053605  0.14242233    -0.76300
O20         O  0.36445768  0.22110150  0.21815148    -0.63800
Ni21       Ni  0.16624029  0.25788055  0.25418935     1.34900
C22         C  0.35137540  0.23574261  0.26017780     0.87300
O23         O  0.19797937  0.15613693  0.20084590    -0.76800
O24         O  0.14680850  0.19499003  0.24759086    -0.87100
C25         C  0.29548230  0.15614752  0.11671763     0.86800
O26         O  0.14493555  0.27144030  0.18807461    -0.65300
O27         O  0.36261040  0.29756724  0.15865044    -0.84600
C28         C  0.15801683  0.25680506  0.14604480     0.87700
C29         C  0.16154162  0.15841866  0.22618933     1.09200
H30         H  0.26945735  0.26873640  0.13780663     0.41000
O31         O  0.28126410  0.25197817  0.16642817    -1.07200
O32         O  0.31590139  0.26089000  0.26603156    -0.63900
Ni33       Ni  0.26962604  0.28885599  0.22358470     1.26300
O34         O  0.19350300  0.23167627  0.14018304    -0.64100
O35         O  0.31142078  0.33642800  0.20536213    -0.76400
C36         C  0.21393097  0.33641670  0.28949035     0.87000
O37         O  0.25444904  0.32372236  0.28075141    -0.63600
Ni38       Ni  0.34317297  0.23467950  0.15203551     1.27400
Ni39       Ni  0.23978100  0.20370634  0.18262512     1.26100
H40         H  0.23995636  0.22382360  0.26840324     0.41600
O41         O  0.67663673  0.17117315  0.26312180    -0.78400
O42         O  0.83179987  0.24590066  0.12626879    -0.63100
O43         O  0.75941147  0.21720958  0.23882456    -1.09700
C44         C  0.67118817  0.34571913  0.18411256     1.08500
O45         O  0.83271449  0.32118887  0.14306283    -0.76300
O46         O  0.78445148  0.35463503  0.22411787    -0.63800
Ni47       Ni  0.74008122  0.15465988  0.24971861     1.34900
C48         C  0.76732079  0.34234116  0.26512953     0.87300
O49         O  0.84159000  0.18514821  0.19988898    -0.76800
O50         O  0.80156295  0.13173300  0.24094595    -0.87100
C51         C  0.84794882  0.28583462  0.11960886     0.86800
O52         O  0.72490841  0.13772323  0.18208596    -0.65300
O53         O  0.70779100  0.36063784  0.16525920    -0.84600
C54         C  0.74203940  0.15001907  0.14107616     0.87700
C55         C  0.83816122  0.14665389  0.22208455     1.09200
H56         H  0.73311404  0.26562897  0.13797080     0.41000
O57         O  0.74993482  0.27515963  0.16737452    -1.07200
O58         O  0.74126454  0.30752514  0.26887103    -0.63900
Ni59       Ni  0.71333444  0.26255216  0.22397982     1.26300
O60         O  0.76808393  0.18484295  0.13733253    -0.64100
O61         O  0.66775483  0.30722479  0.20630898    -0.76400
C62         C  0.66139610  0.20652296  0.28657675     0.87000
O63         O  0.67754182  0.24646062  0.27992630    -0.63600
Ni64       Ni  0.76927104  0.33770701  0.15648176     1.27400
Ni65       Ni  0.79601081  0.22981749  0.18221951     1.26100
H66         H  0.77623184  0.22674050  0.26822688     0.41600
O67         O  0.83180904  0.66608762  0.15589253    -0.78400
O68         O  0.67642363  0.75336773  0.27629462    -0.63100
O69         O  0.75026339  0.71587496  0.16897781    -1.09700
C70         C  0.84052762  0.84304371  0.22490067     1.08500
O71         O  0.67772011  0.82630313  0.25049306    -0.76300
O72         O  0.73349985  0.85899695  0.17880044    -0.63800
Ni73       Ni  0.76780957  0.65236106  0.15959829     1.34900
C74         C  0.74749714  0.84237862  0.13790609     0.87300
O75         O  0.66696071  0.68692404  0.20677878    -0.76800
O76         O  0.70507520  0.63381705  0.16086473    -0.87100
C77         C  0.66145385  0.79474136  0.27749019     0.86800
O78         O  0.77600749  0.63338029  0.22755825    -0.65300
O79         O  0.80444603  0.85860455  0.24547790    -0.84600
C80         C  0.76203079  0.64999778  0.26846178     0.87700
C81         C  0.66900039  0.64937056  0.18146090     1.09200
H82         H  0.77557156  0.76718709  0.26735746     0.41000
O83         O  0.75927183  0.77652771  0.23741169    -1.07200
O84         O  0.76944397  0.80386013  0.13493940    -0.63900
Ni85       Ni  0.79666479  0.76049881  0.18299878     1.26300
O86         O  0.74010518  0.68852895  0.27144473    -0.64100
O87         O  0.84257778  0.80547283  0.19961387    -0.76400
C88         C  0.84808851  0.69765564  0.12891384     0.87000
O89         O  0.83311743  0.73902772  0.13010647    -0.63600
Ni90       Ni  0.74171572  0.84004345  0.24676703     1.27400
Ni91       Ni  0.71287360  0.73189819  0.22339515     1.26100
H92         H  0.73396142  0.72522350  0.13903584     0.41600
O93         O  0.32380356  0.82844435  0.15247807    -0.78400
O94         O  0.25885183  0.66468414  0.27558807    -0.63100
O95         O  0.28166696  0.74361292  0.16660046    -1.09700
C96         C  0.15809524  0.82827160  0.23423212     1.08500
O97         O  0.18577284  0.66418733  0.25396689    -0.76300
O98         O  0.14499747  0.72105615  0.18824297    -0.63800
Ni99       Ni  0.34141396  0.76418778  0.15217688     1.34900
C100        C  0.15814316  0.73487517  0.14633483     0.87300
O101        O  0.31778599  0.66044475  0.20103223    -0.76800
O102        O  0.36294978  0.70141716  0.15044164    -0.87100
C103        C  0.21932090  0.64797107  0.27890780     0.86800
O104        O  0.36457987  0.77157139  0.21820137    -0.65300
O105        O  0.14662561  0.79121193  0.25599709    -0.84600
C106        C  0.35143192  0.75775123  0.26010829     0.87700
C107        C  0.35147863  0.66435499  0.17220141     1.09200
H108        H  0.23853439  0.76523540  0.26924203     0.41000
O109        O  0.22791032  0.74901624  0.23984326    -1.07200
O110        O  0.19324455  0.75955652  0.14042126    -0.63900
Ni111      Ni  0.23693042  0.78858491  0.18487902     1.26300
O112        O  0.31633048  0.73307080  0.26602027    -0.64100
O113        O  0.19179160  0.83218260  0.20540769    -0.76400
C114        C  0.29025524  0.84465765  0.12753467     0.87000
O115        O  0.25072492  0.82794384  0.13085592    -0.63600
Ni116      Ni  0.16816315  0.72844284  0.25426681     1.27400
Ni117      Ni  0.27264645  0.70404337  0.22156397     1.26100
H118        H  0.27104352  0.72739489  0.13720283     0.41600
O119        O  0.35784291  0.94054445  0.91052454    -0.71900
O120        O  0.35070228  0.04555440  0.99643796    -0.71900
O121        O  0.34929023  0.95319960  0.00914978    -0.72000
O122        O  0.35849848  0.03379419  0.89689423    -0.72000
O123        O  0.28236000  0.03450714  0.88887129    -0.72000
O124        O  0.27319414  0.95494193  0.00014702    -0.71900
O125        O  0.27456424  0.04680341  0.98774778    -0.71900
O126        O  0.28167416  0.94202197  0.90222473    -0.72000
Ni127      Ni  0.35697033  0.99332834  0.95338990     1.25400
Ni128      Ni  0.27528065  0.99470253  0.94424192     1.25400
C129        C  0.32068465  0.92355679  0.89358231     0.90300
C130        C  0.31140499  0.06223519  0.00720377     0.90200
C131        C  0.30950619  0.94112272  0.02274635     0.90200
C132        C  0.32157870  0.04751762  0.87495199     0.90400
O133        O  0.97028922  0.32620934  0.00305611    -0.71900
O134        O  0.06696361  0.31673783  0.90681006    -0.71900
O135        O  0.97403708  0.32733014  0.90180320    -0.72000
O136        O  0.06276974  0.31638704  0.00825741    -0.72000
O137        O  0.05584665  0.23942816  0.00687907    -0.72000
O138        O  0.96715662  0.25037434  0.90038978    -0.71900
O139        O  0.05977226  0.23986392  0.90567293    -0.71900
O140        O  0.96359780  0.24926795  0.00131955    -0.72000
Ni141      Ni  0.01882208  0.32442460  0.95496304     1.25400
Ni142      Ni  0.01140044  0.24203414  0.95343960     1.25400
C143        C  0.95131515  0.28909399  0.01812137     0.90300
C144        C  0.07913777  0.27659302  0.89042465     0.90200
C145        C  0.95571826  0.29066148  0.88404971     0.90200
C146        C  0.07338225  0.27621891  0.02538168     0.90400
O147        O  0.69555367  0.04499570  0.90190666    -0.71900
O148        O  0.69712423  0.94876326  0.00260677    -0.71900
O149        O  0.69508249  0.04383465  0.00407345    -0.72000
O150        O  0.69719608  0.94985898  0.90049740    -0.72000
O151        O  0.77331149  0.95012697  0.90206397    -0.72000
O152        O  0.77120363  0.04405968  0.00565627    -0.71900
O153        O  0.77324709  0.94919039  0.00398228    -0.71900
O154        O  0.77167424  0.04511039  0.90370414    -0.72000
Ni155      Ni  0.69355935  0.99686146  0.95220912     1.25400
Ni156      Ni  0.77499775  0.99714140  0.95390287     1.25400
C157        C  0.73346188  0.06074396  0.88611149     0.90300
C158        C  0.73555002  0.93327448  0.01994466     0.90200
C159        C  0.73280257  0.05925143  0.02208218     0.90200
C160        C  0.73557437  0.93458807  0.88414143     0.90400
O161        O  0.05984351  0.66856422  0.01553812    -0.71900
O162        O  0.96870546  0.65656317  0.91122451    -0.71900
O163        O  0.06017203  0.67091798  0.91552415    -0.72000
O164        O  0.96859321  0.65361823  0.01240996    -0.72000
O165        O  0.95576777  0.73023756  0.01421882    -0.72000
O166        O  0.04729991  0.74754599  0.91788021    -0.71900
O167        O  0.95626040  0.73310731  0.91364897    -0.71900
O168        O  0.04650626  0.74502525  0.01747010    -0.72000
Ni169      Ni  0.01469926  0.65956239  0.96355259     1.25400
Ni170      Ni  0.00087092  0.74165287  0.96586356     1.25400
C171        C  0.06838139  0.70901850  0.03295260     0.90300
C172        C  0.94776818  0.69312083  0.89519248     0.90200
C173        C  0.06913569  0.71206479  0.90176930     0.90200
C174        C  0.94766996  0.68933604  0.02944360     0.90400
O175        O  0.33133731  0.78454174  0.79013101    -0.78400
O176        O  0.24817442  0.67816387  0.61661057    -0.63100
O177        O  0.28529376  0.77680946  0.69981994    -1.09700
C178        C  0.15843529  0.72875656  0.79246890     1.08500
O179        O  0.17823640  0.70780138  0.61636524    -0.76300
O180        O  0.14441681  0.77374074  0.67863474    -0.63800
Ni181      Ni  0.34728632  0.78249781  0.72143132     1.34900
C182        C  0.16147800  0.81104427  0.69503230     0.87300
O183        O  0.31442565  0.74065970  0.60996717    -0.76800
O184        O  0.36639063  0.78192350  0.65396894    -0.87100
C185        C  0.20731205  0.67847205  0.60073347     0.86800
O186        O  0.36513134  0.71853192  0.72791666    -0.65300
O187        O  0.14323248  0.71031192  0.75253762    -0.84600
C188        C  0.34809001  0.68124059  0.71145936     0.87700
C189        C  0.35116711  0.76353710  0.61401493     1.09200
H190        H  0.23243588  0.68714200  0.72396582     0.41000
O191        O  0.22430675  0.71549418  0.70666162    -1.07200
O192        O  0.19927891  0.81213148  0.71922894    -0.63900
Ni193      Ni  0.24031280  0.76554927  0.74869644     1.26300
O194        O  0.31031866  0.68017132  0.68720451    -0.64100
O195        O  0.19515094  0.75167708  0.79649256    -0.76400
C196        C  0.30225671  0.81388545  0.80572625     0.87000
O197        O  0.26139665  0.81417272  0.78984269    -0.63600
Ni198      Ni  0.16231026  0.70978398  0.68506978     1.27400
Ni199      Ni  0.26927568  0.72676734  0.65777314     1.26100
H200        H  0.27717887  0.80516585  0.68251892     0.41600
O201        O  0.96672603  0.94171566  0.72635065    -0.71900
O202        O  0.05825607  0.03520329  0.72566723    -0.71900
O203        O  0.96527328  0.03589911  0.72602616    -0.72000
O204        O  0.05969789  0.94060789  0.72607605    -0.72000
O205        O  0.05843727  0.93994787  0.64314491    -0.72000
O206        O  0.96370482  0.03536693  0.64309211    -0.71900
O207        O  0.05683964  0.03472329  0.64263213    -0.71900
O208        O  0.96537304  0.94109755  0.64330165    -0.72000
Ni209      Ni  0.01263911  0.98836830  0.72895386     1.25400
Ni210      Ni  0.01113374  0.98775806  0.64007460     1.25400
C211        C  0.95080700  0.92649658  0.68491715     0.90300
C212        C  0.07214818  0.05056766  0.68407215     0.90200
C213        C  0.94867714  0.05102300  0.68460819     0.90200
C214        C  0.07433418  0.92433247  0.68470884     0.90400
O215        O  0.33541587  0.16630421  0.74697911    -0.78400
O216        O  0.24416030  0.32635414  0.62935449    -0.63100
O217        O  0.28667092  0.25013033  0.73544001    -1.09700
C218        C  0.15727800  0.16084215  0.68827358     1.08500
O219        O  0.17395481  0.32606382  0.65918907    -0.76300
O220        O  0.14616460  0.27000436  0.73305337    -0.63800
Ni221      Ni  0.34929185  0.23125883  0.74180919     1.34900
C222        C  0.16498151  0.25628975  0.77326969     0.87300
O223        O  0.31395179  0.33393482  0.69446150    -0.76800
O224        O  0.36823336  0.29478908  0.73848160    -0.87100
C225        C  0.20388088  0.34294391  0.63111220     0.86800
O226        O  0.36324814  0.22241733  0.67318428    -0.65300
O227        O  0.14113147  0.19758070  0.66781830    -0.84600
C228        C  0.34442082  0.23610871  0.63296476     0.87700
C229        C  0.35210173  0.33152422  0.71800730     1.09200
H230        H  0.22981090  0.22549215  0.64062442     0.41000
O231        O  0.22270948  0.24224128  0.67078908    -1.07200
O232        O  0.20236998  0.23286893  0.77480899    -0.63900
Ni233      Ni  0.24133292  0.20395234  0.72486669     1.26300
O234        O  0.30701244  0.25949518  0.63142123    -0.64100
O235        O  0.19544739  0.15842823  0.71177617    -0.76400
C236        C  0.30551514  0.14942856  0.77508901     0.87000
O237        O  0.26523654  0.16601686  0.77687174    -0.63600
Ni238      Ni  0.16008483  0.26110927  0.66442758     1.27400
Ni239      Ni  0.26805414  0.28841755  0.68136310     1.26100
H240        H  0.27956682  0.26687961  0.76560389     0.41600
O241        O  0.83335636  0.32305334  0.75923211    -0.78400
O242        O  0.67627441  0.24362617  0.62586387    -0.63100
O243        O  0.75059454  0.27669822  0.73725125    -1.09700
C244        C  0.83937596  0.14357217  0.68779649     1.08500
O245        O  0.67606979  0.16910795  0.64690574    -0.76300
O246        O  0.72801882  0.13619511  0.72672538    -0.63800
Ni247      Ni  0.76923261  0.33966725  0.74728308     1.34900
C248        C  0.74385092  0.15102750  0.76804406     0.87300
O249        O  0.66727788  0.30980293  0.69538044    -0.76800
O250        O  0.70681064  0.36272222  0.73930826    -0.87100
C251        C  0.65962342  0.20348400  0.62229445     0.86800
O252        O  0.78140069  0.35597484  0.67944160    -0.65300
O253        O  0.80261289  0.12941578  0.66686332    -0.84600
C254        C  0.76559836  0.34113749  0.63811300     0.87700
C255        C  0.67005684  0.34857556  0.71834956     1.09200
H256        H  0.77546670  0.22392078  0.63963496     0.41000
O257        O  0.75884245  0.21545011  0.66888499    -1.07200
O258        O  0.76827803  0.18723598  0.77171167    -0.63900
Ni259      Ni  0.79647810  0.22958568  0.72522720     1.26300
O260        O  0.74118554  0.30491899  0.63442620    -0.64100
O261        O  0.84216554  0.18235780  0.71073828    -0.76400
C262        C  0.84981134  0.28868030  0.78383812     0.87000
O263        O  0.83317578  0.24853228  0.78025879    -0.63600
Ni264      Ni  0.74019246  0.15248140  0.65887505     1.27400
Ni265      Ni  0.71296522  0.26257002  0.68090117     1.26100
H266        H  0.73396778  0.26821764  0.76649716     0.41600
O267        O  0.67922153  0.82663355  0.64241095    -0.78400
O268        O  0.83223568  0.74066339  0.78199296    -0.63100
O269        O  0.76031639  0.77509879  0.66802237    -1.09700
C270        C  0.66768930  0.65127005  0.71910934     1.08500
O271        O  0.83037877  0.66553954  0.76405367    -0.76300
O272        O  0.78003459  0.63525978  0.68225455    -0.63800
Ni273      Ni  0.74333003  0.83896097  0.65683666     1.34900
C274        C  0.76372042  0.64920737  0.64068636     0.87300
O275        O  0.84392778  0.80217618  0.70975630    -0.76800
O276        O  0.80577262  0.85783555  0.66683322    -0.87100
C277        C  0.84695873  0.69955900  0.78839126     0.86800
O278        O  0.72963064  0.85695340  0.72412764    -0.65300
O279        O  0.70384773  0.63430265  0.73948642    -0.84600
C280        C  0.74590690  0.84298845  0.76570459     0.87700
C281        C  0.84191960  0.84088201  0.68724600     1.09200
H282        H  0.73286552  0.72750306  0.76734218     0.41000
O283        O  0.74928506  0.71706590  0.73839033    -1.07200
O284        O  0.73927429  0.68607629  0.63627406    -0.63900
Ni285      Ni  0.71279775  0.73233643  0.68097694     1.26300
O286        O  0.77031049  0.80609317  0.77013468    -0.64100
O287        O  0.66566539  0.69000510  0.69665940    -0.76400
C288        C  0.66263886  0.79263002  0.61805312     0.87000
O289        O  0.67735906  0.75152175  0.62442890    -0.63600
Ni290      Ni  0.76628043  0.65320085  0.74954987     1.27400
Ni291      Ni  0.79679968  0.75983671  0.72543875     1.26100
H292        H  0.77673688  0.76465268  0.63907546     0.41600
O293        O  0.45266910  0.45752496  0.76370022    -0.71900
O294        O  0.54421328  0.55107359  0.76301192    -0.71900
O295        O  0.45114469  0.55229668  0.76324830    -0.72000
O296        O  0.54580516  0.45680497  0.76315986    -0.72000
O297        O  0.54417719  0.45631854  0.68022594    -0.72000
O298        O  0.44982761  0.55168353  0.68031703    -0.71900
O299        O  0.54280388  0.55050298  0.67996315    -0.71900
O300        O  0.45119387  0.45709504  0.68066507    -0.72000
Ni301      Ni  0.49841605  0.50444955  0.76624839     1.25400
Ni302      Ni  0.49684846  0.50389017  0.67736920     1.25400
C303        C  0.43731303  0.44172359  0.72226143     0.90300
C304        C  0.55876552  0.56568438  0.72139425     0.90200
C305        C  0.43522502  0.56794095  0.72170632     0.90200
C306        C  0.56079115  0.44115975  0.72162109     0.90400
O307        O  0.45524373  0.45310807  0.21409211    -0.71900
O308        O  0.54776286  0.54522579  0.21410328    -0.71900
O309        O  0.45570082  0.54588816  0.20996622    -0.72000
O310        O  0.54783885  0.45149799  0.21741426    -0.72000
O311        O  0.54915618  0.44843897  0.13435965    -0.72000
O312        O  0.45736864  0.54278118  0.12686163    -0.71900
O313        O  0.54959965  0.54232936  0.13114074    -0.71900
O314        O  0.45639032  0.44984554  0.13109355    -0.72000
Ni315      Ni  0.50165266  0.49897714  0.21688513     1.25400
Ni316      Ni  0.50327177  0.49565307  0.12783532     1.25400
C317        C  0.44002177  0.43718293  0.17272166     0.90300
C318        C  0.56353103  0.55918505  0.17278807     0.90200
C319        C  0.44140820  0.55925275  0.16717015     0.90200
C320        C  0.56367243  0.43482915  0.17696664     0.90400
O321        O  0.73628268  0.54314735  0.40235429    -0.71900
O322        O  0.73783764  0.44716859  0.50256562    -0.71900
O323        O  0.73626036  0.54215208  0.50427501    -0.72000
O324        O  0.73826739  0.44827715  0.40061696    -0.72000
O325        O  0.81438916  0.44845308  0.40216228    -0.72000
O326        O  0.81237629  0.54237258  0.50580805    -0.71900
O327        O  0.81395917  0.44723164  0.50432904    -0.71900
O328        O  0.81240617  0.54352760  0.40369281    -0.72000
Ni329      Ni  0.73452420  0.49516912  0.45240336     1.25400
Ni330      Ni  0.81596310  0.49539690  0.45405901     1.25400
C331        C  0.77398202  0.55904874  0.38638174     0.90300
C332        C  0.77604620  0.43149509  0.52012579     0.90200
C333        C  0.77401319  0.55765715  0.52219345     0.90200
C334        C  0.77665168  0.43306844  0.38416263     0.90400
O335        O  0.55331190  0.75922430  0.49276591    -0.71900
O336        O  0.46303858  0.74746806  0.38895401    -0.71900
O337        O  0.55378638  0.76218283  0.39219994    -0.72000
O338        O  0.46226311  0.74484943  0.48854295    -0.72000
O339        O  0.44943866  0.82148203  0.49098713    -0.72000
O340        O  0.54101831  0.83880916  0.39409113    -0.71900
O341        O  0.44975589  0.82393644  0.39097002    -0.71900
O342        O  0.54091738  0.83577419  0.49527527    -0.72000
Ni343      Ni  0.50868539  0.75075762  0.44055385     1.25400
Ni344      Ni  0.49491360  0.83285464  0.44295601     1.25400
C345        C  0.56183233  0.79918802  0.51126307     0.90300
C346        C  0.44118987  0.78350550  0.37351133     0.90200
C347        C  0.56191087  0.80309026  0.37701288     0.90200
C348        C  0.44045301  0.78032702  0.50470195     0.90400
O349        O  0.23491815  0.44569643  0.41851153    -0.71900
O350        O  0.22784959  0.55041367  0.50412675    -0.71900
O351        O  0.22712066  0.45791982  0.51739937    -0.72000
O352        O  0.23633688  0.53756901  0.40619920    -0.72000
O353        O  0.16024193  0.53935454  0.39718562    -0.72000
O354        O  0.15098250  0.45867846  0.50936920    -0.71900
O355        O  0.15168135  0.55193457  0.49581508    -0.71900
O356        O  0.15878021  0.44699030  0.40981811    -0.72000
Ni357      Ni  0.23422421  0.49776368  0.46206492     1.25400
Ni358      Ni  0.15253491  0.49918529  0.45290776     1.25400
C359        C  0.19806915  0.43029716  0.39904190     0.90300
C360        C  0.18884592  0.56889071  0.51277616     0.90200
C361        C  0.18789376  0.44492010  0.53130440     0.90200
C362        C  0.20003389  0.55142810  0.38361082     0.90400
O363        O  0.44965511  0.25251468  0.50056915    -0.71900
O364        O  0.54579196  0.24307096  0.40488709    -0.71900
O365        O  0.45355320  0.25299601  0.39936231    -0.72000
O366        O  0.54226681  0.24191359  0.50581494    -0.72000
O367        O  0.53531764  0.16496594  0.50435669    -0.72000
O368        O  0.44656060  0.17604494  0.39794212    -0.71900
O369        O  0.53903287  0.16613711  0.40310348    -0.71900
O370        O  0.44239524  0.17564887  0.49938991    -0.72000
Ni371      Ni  0.49801184  0.25032290  0.45278616     1.25400
Ni372      Ni  0.49051661  0.16794085  0.45121571     1.25400
C373        C  0.43025957  0.21579647  0.51580081     0.90300
C374        C  0.55803494  0.20324405  0.38805689     0.90200
C375        C  0.43598161  0.21623039  0.38084288     0.90200
C376        C  0.55367776  0.20160758  0.52212394     0.90400
C377        C  0.62551650  0.80034170  0.58269795    -0.10700
C378        C  0.59584008  0.80237775  0.55073436    -0.12300
C379        C  0.77088781  0.61995399  0.59674764    -0.10700
C380        C  0.77322979  0.59246148  0.56205807    -0.11900
C381        C  0.62706051  0.62421816  0.72070632    -0.10700
C382        C  0.59476237  0.59883139  0.72118847    -0.12300
C383        C  0.77333573  0.36889749  0.59364984    -0.10700
C384        C  0.77602440  0.39618547  0.55913965    -0.12300
C385        C  0.58875102  0.19762525  0.56029795    -0.10700
C386        C  0.62018240  0.19766596  0.59012240    -0.12300
C387        C  0.62973085  0.37893910  0.72021460    -0.10700
C388        C  0.59763743  0.40644739  0.72128434    -0.12300
C389        C  0.36878847  0.22627862  0.58732106    -0.10700
C390        C  0.39500200  0.22010492  0.55313984    -0.12300
C391        C  0.18637539  0.41251741  0.57109714    -0.10700
C392        C  0.19209308  0.38201414  0.60090345    -0.12300
C393        C  0.40467339  0.40506088  0.72227000    -0.10700
C394        C  0.37937241  0.37243944  0.72096443    -0.12300
C395        C  0.88255236  0.86792160  0.68562032    -0.10700
C396        C  0.91483924  0.89332022  0.68512015    -0.12300
C397        C  0.87970193  0.11320694  0.68593870    -0.10700
C398        C  0.91180689  0.08571083  0.68489464    -0.12300
C399        C  0.13001107  0.11992170  0.68534378    -0.10700
C400        C  0.10474240  0.08727317  0.68406125    -0.12300
C401        C  0.19360958  0.64368261  0.56666199    -0.10700
C402        C  0.18757270  0.61010297  0.54145278    -0.12300
C403        C  0.37817748  0.76856453  0.57135579    -0.10700
C404        C  0.40538166  0.77379254  0.53938270    -0.12300
C405        C  0.40099728  0.60531524  0.72122643    -0.10700
C406        C  0.37467097  0.63847872  0.71848135    -0.12300
C407        C  0.10856829  0.88696475  0.68523576    -0.10700
C408        C  0.13489340  0.85380199  0.68800150    -0.12300
C409        C  0.10421273  0.71857883  0.86709769    -0.10700
C410        C  0.13142404  0.72376406  0.83512695    -0.12300
C411        C  0.88408566  0.69187245  0.82375222    -0.10700
C412        C  0.91376426  0.68987373  0.85571866    -0.12300
C413        C  0.73638976  0.89976070  0.84430471    -0.10700
C414        C  0.73874224  0.87225189  0.80963297    -0.12300
C415        C  0.73613498  0.12327840  0.81252096    -0.10700
C416        C  0.73347050  0.09601768  0.84705933    -0.12300
C417        C  0.92066055  0.29459106  0.84585599    -0.10700
C418        C  0.88924111  0.29451483  0.81601916    -0.12300
C419        C  0.14061930  0.26612776  0.81891437    -0.10700
C420        C  0.11440321  0.27229871  0.85309341    -0.12300
C421        C  0.31733279  0.11037732  0.80531091    -0.10700
C422        C  0.32307612  0.07989416  0.83513480    -0.12300
C423        C  0.32197216  0.88232123  0.86493734    -0.10700
C424        C  0.31594871  0.84871498  0.83976105    -0.12300
C425        C  0.37917332  0.76967337  0.30273020    -0.10700
C426        C  0.40637552  0.77785249  0.33572514    -0.12300
C427        C  0.21172856  0.61060277  0.31182898    -0.10700
C428        C  0.20470139  0.58215469  0.34296088    -0.12300
C429        C  0.40698534  0.59387751  0.16447573    -0.10700
C430        C  0.37980563  0.62497590  0.16557812    -0.12300
C431        C  0.29784632  0.88201444  0.09459798    -0.10700
C432        C  0.30485918  0.91043823  0.06343633    -0.12300
C433        C  0.13040061  0.72294317  0.10371482    -0.10700
C434        C  0.10319588  0.71473233  0.07073026    -0.12300
C435        C  0.77281260  0.59446232  0.34753887    -0.10700
C436        C  0.76946621  0.62196738  0.31314992    -0.12300
C437        C  0.62470687  0.80547631  0.30956254    -0.10700
C438        C  0.59526686  0.80826026  0.33981990    -0.12300
C439        C  0.62881673  0.62151449  0.17669062    -0.10700
C440        C  0.59805326  0.59416062  0.17365444    -0.12300
C441        C  0.88485362  0.68693246  0.09686640    -0.10700
C442        C  0.91430694  0.68416616  0.06662532    -0.12300
C443        C  0.74006343  0.87039265  0.09320845    -0.10700
C444        C  0.73672127  0.89788108  0.05880559    -0.12300
C445        C  0.62407287  0.20166981  0.32096716    -0.10700
C446        C  0.59378836  0.20064085  0.35132476    -0.12300
C447        C  0.77517524  0.37133131  0.30913838    -0.10700
C448        C  0.77719318  0.39854627  0.34407557    -0.12300
C449        C  0.63154642  0.37472831  0.18095972    -0.10700
C450        C  0.59948358  0.40102618  0.17927802    -0.12300
C451        C  0.73222089  0.09379026  0.06214867    -0.10700
C452        C  0.73420757  0.12101806  0.09707439    -0.12300
C453        C  0.91555251  0.29169071  0.05484692    -0.10700
C454        C  0.88526871  0.29067479  0.08520826    -0.12300
C455        C  0.20604760  0.36842709  0.32863209    -0.10700
C456        C  0.20124065  0.39526314  0.36217814    -0.12300
C457        C  0.37930117  0.22523652  0.30346320    -0.10700
C458        C  0.40436112  0.22015320  0.33932436    -0.12300
C459        C  0.40390170  0.40419140  0.17347565    -0.10700
C460        C  0.37565448  0.37440296  0.17622729    -0.12300
C461        C  0.10500414  0.27234308  0.06690560    -0.10700
C462        C  0.13007362  0.26729026  0.10276487    -0.12300
C463        C  0.30337560  0.12413498  0.07757850    -0.10700
C464        C  0.30821092  0.09728979  0.04404469    -0.12300
C465        C  0.12975470  0.86764258  0.24082881    -0.10700
C466        C  0.10255203  0.89872064  0.24189073    -0.12300
C467        C  0.91146299  0.89827583  0.23266674    -0.10700
C468        C  0.88070609  0.87091174  0.22965246    -0.12300
C469        C  0.90988625  0.09137709  0.22690272    -0.10700
C470        C  0.87780582  0.11765118  0.22522652    -0.12300
C471        C  0.13374686  0.11816163  0.22999081    -0.10700
C472        C  0.10549766  0.08837386  0.23274116    -0.12300
loop_ 
_geom_bond_atom_site_label_1 
_geom_bond_atom_site_label_2 
_geom_bond_distance 
_geom_bond_site_symmetry_2 
_ccdc_geom_bond_type 
O1           Ni9   1.927   1_655  S
O1           C11   1.282       .  A
O2           Ni9   1.923   1_545  S
O2           C12   1.282       .  A
O3           Ni9   1.904   1_645  S
O3           C13   1.277       .  A
O4           Ni9   1.896       .  S
O4           C14   1.274       .  A
O5          Ni10   1.900       .  S
O5           C14   1.277       .  A
O6          Ni10   1.909   1_645  S
O6           C13   1.278       .  A
O7          Ni10   1.912   1_545  S
O7           C12   1.278       .  A
O8          Ni10   1.915   1_655  S
O8           C11   1.279       .  A
Ni9         Ni10   2.397       .  S
C11         C467   1.439       .  S
C12         C472   1.434       .  S
C13         C469   1.421       .  S
C14         C466   1.408       .  S
O15         Ni21   1.918       .  S
O15          C36   1.266       .  A
O16         Ni39   1.889       .  S
O16          C25   1.261       .  A
O17         Ni21   1.917       .  S
O17         Ni39   1.898       .  S
O17         Ni33   1.918       .  S
O17          H40   0.967       .  S
C18          O35   1.276       .  A
C18          O27   1.272       .  A
C18         C460   1.433       .  S
O19         Ni38   1.918       .  S
O19          C25   1.266       .  A
O20         Ni38   1.914       .  S
O20          C22   1.268       .  A
Ni21         O24   1.916       .  S
Ni21         O26   1.914       .  S
C22          O32   1.269       .  A
C22         C457   1.442       .  S
O23         Ni39   1.923       .  S
O23          C29   1.276       .  A
O24          C29   1.272       .  A
C25         C463   1.417       .  S
O26          C28   1.268       .  A
O27         Ni38   1.916       .  S
C28          O34   1.269       .  A
C28         C462   1.442       .  S
C29         C471   1.433       .  S
H30          O31   0.967       .  S
O31         Ni39   1.918       .  S
O31         Ni33   1.898       .  S
O31         Ni38   1.917       .  S
O32         Ni33   1.926       .  S
Ni33         O37   1.889       .  S
Ni33         O35   1.923       .  S
O34         Ni39   1.926       .  S
C36          O37   1.261       .  A
C36         C455   1.417       .  S
O41         Ni47   1.949       .  S
O41          C62   1.275       .  A
O42         Ni65   1.910       .  S
O42          C51   1.266       .  A
O43         Ni47   1.924       .  S
O43         Ni65   1.915       .  S
O43         Ni59   1.902       .  S
O43          H66   0.966       .  S
C44          O61   1.269       .  A
C44          O53   1.275       .  A
C44         C449   1.421       .  S
O45         Ni64   1.949       .  S
O45          C51   1.275       .  A
O46         Ni64   1.928       .  S
O46          C48   1.273       .  A
Ni47         O50   1.925       .  S
Ni47         O52   1.928       .  S
C48          O58   1.276       .  A
C48         C447   1.464       .  S
O49         Ni65   1.896       .  S
O49          C55   1.269       .  A
O50          C55   1.275       .  A
C51         C454   1.452       .  S
O52          C54   1.273       .  A
O53         Ni64   1.925       .  S
C54          O60   1.276       .  A
C54         C452   1.463       .  S
C55         C470   1.421       .  S
H56          O57   0.966       .  S
O57         Ni65   1.902       .  S
O57         Ni59   1.915       .  S
O57         Ni64   1.924       .  S
O58         Ni59   1.949       .  S
Ni59         O63   1.910       .  S
Ni59         O61   1.896       .  S
O60         Ni65   1.949       .  S
C62          O63   1.266       .  A
C62         C445   1.452       .  S
O67         Ni73   1.925       .  S
O67          C88   1.270       .  A
O68         Ni91   1.889       .  S
O68          C77   1.265       .  A
O69         Ni73   1.911       .  S
O69         Ni91   1.893       .  S
O69         Ni85   1.918       .  S
O69          H92   0.966       .  S
C70          O87   1.278       .  A
C70          O79   1.275       .  A
C70         C468   1.439       .  S
O71         Ni90   1.925       .  S
O71          C77   1.270       .  A
O72         Ni90   1.920       .  S
O72          C74   1.269       .  A
Ni73         O76   1.922       .  S
Ni73         O78   1.920       .  S
C74          O84   1.277       .  A
C74         C443   1.462       .  S
O75         Ni91   1.929       .  S
O75          C81   1.278       .  A
O76          C81   1.275       .  A
C77         C437   1.419       .  S
O78          C80   1.269       .  A
O79         Ni90   1.922       .  S
C80          O86   1.277       .  A
C80         C436   1.462       .  S
C81         C439   1.439       .  S
H82          O83   0.966       .  S
O83         Ni91   1.918       .  S
O83         Ni85   1.893       .  S
O83         Ni90   1.911       .  S
O84         Ni85   1.954       .  S
Ni85         O89   1.889       .  S
Ni85         O87   1.929       .  S
O86         Ni91   1.954       .  S
C88          O89   1.265       .  A
C88         C441   1.419       .  S
O93         Ni99   1.916       .  S
O93         C114   1.265       .  A
O94        Ni117   1.900       .  S
O94         C103   1.265       .  A
O95         Ni99   1.902       .  S
O95        Ni117   1.895       .  S
O95        Ni111   1.897       .  S
O95         H118   0.967       .  S
C96         O113   1.271       .  A
C96         O105   1.273       .  A
C96         C465   1.408       .  S
O97        Ni116   1.915       .  S
O97         C103   1.265       .  A
O98        Ni116   1.903       .  S
O98         C100   1.265       .  A
Ni99        O102   1.908       .  S
Ni99        O104   1.903       .  S
C100        O110   1.272       .  A
C100        C433   1.438       .  S
O101       Ni117   1.897       .  S
O101        C107   1.271       .  A
O102        C107   1.273       .  A
C103        C427   1.420       .  S
O104        C106   1.265       .  A
O105       Ni116   1.908       .  S
C106        O112   1.272       .  A
C106        C425   1.438       .  S
C107        C430   1.408       .  S
H108        O109   0.967       .  S
O109       Ni117   1.897       .  S
O109       Ni111   1.895       .  S
O109       Ni116   1.902       .  S
O110       Ni111   1.934       .  S
Ni111       O115   1.900       .  S
Ni111       O113   1.897       .  S
O112       Ni117   1.934       .  S
C114        O115   1.265       .  A
C114        C431   1.420       .  S
O119       Ni127   1.906       .  S
O119        C129   1.277       .  A
O120       Ni127   1.904   1_545  S
O120        C130   1.277   1_556  A
O121       Ni127   1.916   1_554  S
O121        C131   1.280       .  A
O122       Ni127   1.921   1_545  S
O122        C132   1.281       .  A
O123       Ni128   1.900   1_545  S
O123        C132   1.276       .  A
O124       Ni128   1.897   1_554  S
O124        C131   1.275       .  A
O125       Ni128   1.901   1_545  S
O125        C130   1.277   1_556  A
O126       Ni128   1.898       .  S
O126        C129   1.277       .  A
Ni127      Ni128   2.400       .  S
C129        C423   1.415       .  S
C130        C464   1.416       .  S
C131        C432   1.420       .  S
C132        C422   1.425       .  S
O133       Ni141   1.937   1_654  S
O133        C143   1.284       .  A
O134       Ni141   1.939       .  S
O134        C144   1.284       .  A
O135       Ni141   1.925   1_655  S
O135        C145   1.280       .  A
O136       Ni141   1.922   1_554  S
O136        C146   1.280       .  A
O137       Ni142   1.924   1_554  S
O137        C146   1.281       .  A
O138       Ni142   1.924   1_655  S
O138        C145   1.281       .  A
O139       Ni142   1.927       .  S
O139        C144   1.281       .  A
O140       Ni142   1.925   1_654  S
O140        C143   1.281       .  A
Ni141      Ni142   2.390       .  S
C143        C453   1.452       .  S
C144        C420   1.455       .  S
C145        C417   1.444       .  S
C146        C461   1.442       .  S
O147       Ni155   1.944   1_545  S
O147        C157   1.285       .  A
O148       Ni155   1.943   1_554  S
O148        C158   1.285       .  A
O149       Ni155   1.941   1_544  S
O149        C159   1.284       .  A
O150       Ni155   1.941       .  S
O150        C160   1.284       .  A
O151       Ni156   1.941       .  S
O151        C160   1.285       .  A
O152       Ni156   1.940   1_544  S
O152        C159   1.284       .  A
O153       Ni156   1.936   1_554  S
O153        C158   1.283       .  A
O154       Ni156   1.937   1_545  S
O154        C157   1.283       .  A
Ni155      Ni156   2.384       .  S
C157        C416   1.465       .  S
C158        C444   1.463       .  S
C159        C451   1.465       .  S
C160        C413   1.466       .  S
O161       Ni169   1.928   1_554  S
O161        C171   1.282       .  A
O162       Ni169   1.934   1_655  S
O162        C172   1.283       .  A
O163       Ni169   1.903       .  S
O163        C173   1.277       .  A
O164       Ni169   1.909   1_654  S
O164        C174   1.277       .  A
O165       Ni170   1.901   1_654  S
O165        C174   1.277       .  A
O166       Ni170   1.899       .  S
O166        C173   1.276       .  A
O167       Ni170   1.920   1_655  S
O167        C172   1.280       .  A
O168       Ni170   1.914   1_554  S
O168        C171   1.279       .  A
Ni169      Ni170   2.396       .  S
C171        C434   1.438       .  S
C172        C412   1.447       .  S
C173        C409   1.413       .  S
C174        C442   1.419       .  S
O175       Ni181   1.913       .  S
O175        C196   1.266       .  A
O176       Ni199   1.888       .  S
O176        C185   1.263       .  A
O177       Ni181   1.906       .  S
O177       Ni199   1.890       .  S
O177       Ni193   1.908       .  S
O177        H200   0.967       .  S
C178        O195   1.274       .  A
C178        O187   1.273       .  A
C178        C410   1.413       .  S
O179       Ni198   1.913       .  S
O179        C185   1.266       .  A
O180       Ni198   1.917       .  S
O180        C182   1.268       .  A
Ni181       O184   1.907       .  S
Ni181       O186   1.917       .  S
C182        O192   1.275       .  A
C182        C408   1.459       .  S
O183       Ni199   1.907       .  S
O183        C189   1.274       .  A
O184        C189   1.273       .  A
C185        C401   1.414       .  S
O186        C188   1.268       .  A
O187       Ni198   1.907       .  S
C188        O194   1.275       .  A
C188        C406   1.459       .  S
C189        C403   1.413       .  S
H190        O191   0.967       .  S
O191       Ni199   1.908       .  S
O191       Ni193   1.890       .  S
O191       Ni198   1.906       .  S
O192       Ni193   1.950       .  S
Ni193       O197   1.888       .  S
Ni193       O195   1.907       .  S
O194       Ni199   1.950       .  S
C196        O197   1.263       .  A
C196        C424   1.415       .  S
O201       Ni209   1.917   1_655  S
O201        C211   1.279       .  A
O202       Ni209   1.918   1_545  S
O202        C212   1.280       .  A
O203       Ni209   1.935   1_645  S
O203        C213   1.283       .  A
O204       Ni209   1.935       .  S
O204        C214   1.283       .  A
O205       Ni210   1.939       .  S
O205        C214   1.284       .  A
O206       Ni210   1.939   1_645  S
O206        C213   1.284       .  A
O207       Ni210   1.919   1_545  S
O207        C212   1.280       .  A
O208       Ni210   1.917   1_655  S
O208        C211   1.279       .  A
Ni209      Ni210   2.390       .  S
C211        C396   1.434       .  S
C212        C400   1.436       .  S
C213        C398   1.460       .  S
C214        C407   1.460       .  S
O215       Ni221   1.929       .  S
O215        C236   1.270       .  A
O216       Ni239   1.897       .  S
O216        C225   1.267       .  A
O217       Ni221   1.909       .  S
O217       Ni239   1.897       .  S
O217       Ni233   1.912       .  S
O217        H240   0.966       .  S
C218        O235   1.276       .  A
C218        O227   1.276       .  A
C218        C399   1.436       .  S
O219       Ni238   1.929       .  S
O219        C225   1.270       .  A
O220       Ni238   1.912       .  S
O220        C222   1.267       .  A
Ni221       O224   1.925       .  S
Ni221       O226   1.912       .  S
C222        O232   1.277       .  A
C222        C419   1.454       .  S
O223       Ni239   1.921       .  S
O223        C229   1.276       .  A
O224        C229   1.276       .  A
C225        C392   1.426       .  S
O226        C228   1.267       .  A
O227       Ni238   1.926       .  S
C228        O234   1.277       .  A
C228        C389   1.454       .  S
C229        C394   1.436       .  S
H230        O231   0.966       .  S
O231       Ni239   1.912       .  S
O231       Ni233   1.897       .  S
O231       Ni238   1.909       .  S
O232       Ni233   1.952       .  S
Ni233       O237   1.897       .  S
Ni233       O235   1.921       .  S
O234       Ni239   1.952       .  S
C236        O237   1.267       .  A
C236        C421   1.426       .  S
O241       Ni247   1.952       .  S
O241        C262   1.277       .  A
O242       Ni265   1.898       .  S
O242        C251   1.266       .  A
O243       Ni247   1.921       .  S
O243       Ni265   1.905       .  S
O243       Ni259   1.925       .  S
O243        H266   0.966       .  S
C244        O261   1.278       .  A
C244        O253   1.278       .  A
C244        C397   1.460       .  S
O245       Ni264   1.952       .  S
O245        C251   1.278       .  A
O246       Ni264   1.926       .  S
O246        C248   1.272       .  A
Ni247       O250   1.943       .  S
Ni247       O252   1.926       .  S
C248        O258   1.278       .  A
C248        C415   1.464       .  S
O249       Ni265   1.937       .  S
O249        C255   1.278       .  A
O250        C255   1.278       .  A
C251        C386   1.443       .  S
O252        C254   1.272       .  A
O253       Ni264   1.944       .  S
C254        O260   1.278       .  A
C254        C383   1.464       .  S
C255        C387   1.460       .  S
H256        O257   0.966       .  S
O257       Ni265   1.925       .  S
O257       Ni259   1.905       .  S
O257       Ni264   1.921       .  S
O258       Ni259   1.953       .  S
Ni259       O263   1.898       .  S
Ni259       O261   1.937       .  S
O260       Ni265   1.953       .  S
C262        O263   1.266       .  A
C262        C418   1.443       .  S
O267       Ni273   1.948       .  S
O267        C288   1.275       .  A
O268       Ni291   1.906       .  S
O268        C277   1.266       .  A
O269       Ni273   1.923       .  S
O269       Ni291   1.912       .  S
O269       Ni285   1.911       .  S
O269        H292   0.966       .  S
C270        O287   1.272       .  A
C270        O279   1.275       .  A
C270        C381   1.434       .  S
O271       Ni290   1.948       .  S
O271        C277   1.275       .  A
O272       Ni290   1.927       .  S
O272        C274   1.273       .  A
Ni273       O276   1.930       .  S
Ni273       O278   1.927       .  S
C274        O284   1.277       .  A
C274        C379   1.465       .  S
O275       Ni291   1.910       .  S
O275        C281   1.272       .  A
O276        C281   1.275       .  A
C277        C411   1.447       .  S
O278        C280   1.273       .  A
O279       Ni290   1.930       .  S
C280        O286   1.277       .  A
C280        C414   1.465       .  S
C281        C395   1.434       .  S
H282        O283   0.966       .  S
O283       Ni291   1.911       .  S
O283       Ni285   1.912       .  S
O283       Ni290   1.924       .  S
O284       Ni285   1.952       .  S
Ni285       O289   1.906       .  S
Ni285       O287   1.910       .  S
O286       Ni291   1.952       .  S
C288        O289   1.266       .  A
C288        C377   1.447       .  S
O293       Ni301   1.919       .  S
O293        C303   1.280       .  A
O294       Ni301   1.917       .  S
O294        C304   1.279       .  A
O295       Ni301   1.940       .  S
O295        C305   1.284       .  A
O296       Ni301   1.939       .  S
O296        C306   1.284       .  A
O297       Ni302   1.935       .  S
O297        C306   1.283       .  A
O298       Ni302   1.935       .  S
O298        C305   1.283       .  A
O299       Ni302   1.917       .  S
O299        C304   1.279       .  A
O300       Ni302   1.918       .  S
O300        C303   1.280       .  A
Ni301      Ni302   2.390       .  S
C303        C393   1.436       .  S
C304        C382   1.434       .  S
C305        C405   1.460       .  S
C306        C388   1.460       .  S
O307       Ni315   1.912       .  S
O307        C317   1.278       .  A
O308       Ni315   1.915       .  S
O308        C318   1.279       .  A
O309       Ni315   1.900       .  S
O309        C319   1.277       .  A
O310       Ni315   1.909       .  S
O310        C320   1.278       .  A
O311       Ni316   1.904       .  S
O311        C320   1.277       .  A
O312       Ni316   1.896       .  S
O312        C319   1.274       .  A
O313       Ni316   1.927       .  S
O313        C318   1.282       .  A
O314       Ni316   1.923       .  S
O314        C317   1.282       .  A
Ni315      Ni316   2.397       .  S
C317        C459   1.434       .  S
C318        C440   1.439       .  S
C319        C429   1.408       .  S
C320        C450   1.421       .  S
O321       Ni329   1.936       .  S
O321        C331   1.283       .  A
O322       Ni329   1.937       .  S
O322        C332   1.283       .  A
O323       Ni329   1.941       .  S
O323        C333   1.285       .  A
O324       Ni329   1.940       .  S
O324        C334   1.284       .  A
O325       Ni330   1.941       .  S
O325        C334   1.284       .  A
O326       Ni330   1.941       .  S
O326        C333   1.284       .  A
O327       Ni330   1.944       .  S
O327        C332   1.285       .  A
O328       Ni330   1.944       .  S
O328        C331   1.285       .  A
Ni329      Ni330   2.384       .  S
C331        C435   1.463       .  S
C332        C384   1.465       .  S
C333        C380   1.466       .  S
C334        C448   1.465       .  S
O335       Ni343   1.920       .  S
O335        C345   1.280       .  A
O336       Ni343   1.914       .  S
O336        C346   1.279       .  A
O337       Ni343   1.901       .  S
O337        C347   1.277       .  A
O338       Ni343   1.899       .  S
O338        C348   1.276       .  A
O339       Ni344   1.903       .  S
O339        C348   1.277       .  A
O340       Ni344   1.909       .  S
O340        C347   1.277       .  A
O341       Ni344   1.928       .  S
O341        C346   1.282       .  A
O342       Ni344   1.934       .  S
O342        C345   1.283       .  A
Ni343      Ni344   2.396       .  S
C345        C378   1.447       .  S
C346        C426   1.438       .  S
C347        C438   1.419       .  S
C348        C404   1.414       .  S
O349       Ni357   1.901       .  S
O349        C359   1.277       .  A
O350       Ni357   1.898       .  S
O350        C360   1.277       .  A
O351       Ni357   1.900       .  S
O351        C361   1.276       .  A
O352       Ni357   1.897       .  S
O352        C362   1.275       .  A
O353       Ni358   1.916       .  S
O353        C362   1.280       .  A
O354       Ni358   1.921       .  S
O354        C361   1.281       .  A
O355       Ni358   1.906       .  S
O355        C360   1.277       .  A
O356       Ni358   1.904       .  S
O356        C359   1.277       .  A
Ni357      Ni358   2.400       .  S
C359        C456   1.416       .  S
C360        C402   1.415       .  S
C361        C391   1.425       .  S
C362        C428   1.420       .  S
O363       Ni371   1.927       .  S
O363        C373   1.281       .  A
O364       Ni371   1.925       .  S
O364        C374   1.281       .  A
O365       Ni371   1.924       .  S
O365        C375   1.281       .  A
O366       Ni371   1.924       .  S
O366        C376   1.281       .  A
O367       Ni372   1.925       .  S
O367        C376   1.280       .  A
O368       Ni372   1.922       .  S
O368        C375   1.280       .  A
O369       Ni372   1.937       .  S
O369        C374   1.284       .  A
O370       Ni372   1.939       .  S
O370        C373   1.284       .  A
Ni371      Ni372   2.390       .  S
C373        C390   1.455       .  S
C374        C446   1.452       .  S
C375        C458   1.442       .  S
C376        C385   1.444       .  S
C377        C378   1.213       .  T
C379        C380   1.224       .  T
C381        C382   1.205       .  T
C383        C384   1.223       .  T
C385        C386   1.211       .  T
C387        C388   1.221       .  T
C389        C390   1.218       .  T
C391        C392   1.200       .  T
C393        C394   1.207       .  T
C395        C396   1.205       .  T
C397        C398   1.221       .  T
C399        C400   1.207       .  T
C401        C402   1.194       .  T
C403        C404   1.193       .  T
C405        C406   1.220       .  T
C407        C408   1.220       .  T
C409        C410   1.193       .  T
C411        C412   1.213       .  T
C413        C414   1.224       .  T
C415        C416   1.223       .  T
C417        C418   1.211       .  T
C419        C420   1.218       .  T
C421        C422   1.200       .  T
C423        C424   1.194       .  T
C425        C426   1.208       .  T
C427        C428   1.197       .  T
C429        C430   1.190       .  T
C431        C432   1.197       .  T
C433        C434   1.208       .  T
C435        C436   1.222       .  T
C437        C438   1.196       .  T
C439        C440   1.208       .  T
C441        C442   1.196       .  T
C443        C444   1.222       .  T
C445        C446   1.216       .  T
C447        C448   1.223       .  T
C449        C450   1.198       .  T
C451        C452   1.223       .  T
C453        C454   1.216       .  T
C455        C456   1.195       .  T
C457        C458   1.210       .  T
C459        C460   1.205       .  T
C461        C462   1.210       .  T
C463        C464   1.195       .  T
C465        C466   1.190       .  T
C467        C468   1.208       .  T
C469        C470   1.198       .  T
C471        C472   1.205       .  T
