geometry optimzed in LAMMPS
_audit_creation_date              2020-12-01 
_audit_creation_method            'lammps2cif' 
_symmetry_space_group_name_H-M    'P1' 
_symmetry_Int_Tables_number       1 
_symmetry_cell_setting            triclinic 
loop_ 
_symmetry_equiv_pos_as_xyz 
  x,y,z 
_cell_length_a                    69.43495242 
_cell_length_b                    69.13560295154278 
_cell_length_c                    69.48528211029583 
_cell_angle_alpha                 90.79558316229026 
_cell_angle_beta                  89.97749313605725 
_cell_angle_gamma                 88.35163240724265 
loop_ 
_atom_site_label 
_atom_site_type_symbol 
_atom_site_fract_x 
_atom_site_fract_y 
_atom_site_fract_z 
_atom_site_charge 
Zr1        Zr  0.81848788  0.76707815  0.80921639     2.17500
O2          O  0.80561988  0.73857055  0.79338930    -0.51300
O3          O  0.83075652  0.75313833  0.83892798    -0.74500
O4          O  0.84895228  0.74865523  0.80085772    -0.81300
O5          O  0.77841692  0.78365681  0.84193440    -0.83000
O6          O  0.86570884  0.76713575  0.78029195    -0.78600
O7          O  0.79418861  0.75611065  0.83193275    -0.90300
O8          O  0.84849106  0.77664905  0.85314595    -0.76200
O9          O  0.84790006  0.78347174  0.80957490    -0.85700
O10         O  0.81673679  0.79091233  0.83422459    -0.85400
O11         O  0.81899649  0.78247402  0.77800572    -0.72200
O12         O  0.79168275  0.78906930  0.80091314    -0.84300
Zr13       Zr  0.82350785  0.84332424  0.79845787     2.26400
Zr14       Zr  0.84925163  0.79794380  0.77890339     2.06300
Zr15       Zr  0.79063078  0.81186876  0.82703223     2.10000
Zr16       Zr  0.84654484  0.80652619  0.83508773     1.78800
O17         O  0.75559022  0.81264431  0.82624772    -0.93100
O18         O  0.88129580  0.80087778  0.83431970    -0.40900
O19         O  0.82020777  0.82872156  0.82921495    -0.77500
O20         O  0.85017562  0.82158771  0.80452903    -0.96200
O21         O  0.82406835  0.82089946  0.77241719    -0.89500
O22         O  0.79319523  0.82813938  0.79748074    -0.92400
C23         C  0.84108024  0.75981574  0.85268622     1.01400
C24         C  0.78185040  0.76538704  0.84270140     1.14300
C25         C  0.86376250  0.75186554  0.79012651     1.05100
O26         O  0.88334496  0.80528646  0.78032594    -0.94500
O27         O  0.85547043  0.82243165  0.75639361    -0.90300
O28         O  0.84353151  0.85050464  0.76974312    -0.83400
C29         C  0.85298788  0.84072834  0.75652015     1.11700
O30         O  0.77820405  0.78186910  0.75230425    -0.96500
Zr31       Zr  0.79381439  0.80698868  0.77102932     1.88900
O32         O  0.80400056  0.86217753  0.77829439    -0.73100
O33         O  0.85098552  0.78166637  0.74757493    -0.52400
O34         O  0.80413102  0.80622170  0.73751718    -0.97100
O35         O  0.75875209  0.80774746  0.77262609    -0.54300
O36         O  0.78589980  0.84177722  0.76056033    -0.73700
C37         C  0.79151545  0.85911155  0.76541760     0.98700
O38         O  0.84212330  0.87008637  0.81067498    -0.62500
O39         O  0.79212438  0.81971394  0.86129780    -0.57300
O40         O  0.79937332  0.86384004  0.81616406    -0.94000
O41         O  0.77775835  0.84407491  0.82932517    -0.92400
O42         O  0.83999341  0.81319030  0.86901078    -0.92700
O43         O  0.86322079  0.83489037  0.84676153    -0.91500
C44         C  0.78338155  0.86086497  0.82510260     1.17500
H45         H  0.81418434  0.78568726  0.84671897     0.33500
H46         H  0.86206492  0.82850103  0.80417323     0.44300
H47         H  0.78239967  0.83701587  0.79574637     0.37800
H48         H  0.81918285  0.77263357  0.76799611     0.34300
H49         H  0.88417544  0.79316608  0.84591291     0.26100
H50         H  0.83999463  0.78722315  0.74022384     0.32100
H51         H  0.80768810  0.81967142  0.73475486     0.38000
H52         H  0.83127387  0.82477375  0.86915143     0.32400
H53         H  0.79332377  0.83393417  0.86216320     0.31300
H54         H  0.75233225  0.80385146  0.81544545     0.33000
H55         H  0.75456269  0.81360086  0.76033783     0.31900
H56         H  0.85403214  0.84587413  0.84467612     0.35900
H57         H  0.83678228  0.88146796  0.80379014     0.28700
H58         H  0.81694544  0.72983636  0.79102719     0.32900
H59         H  0.78270908  0.76959084  0.75819194     0.35800
H60         H  0.77907178  0.81726808  0.86626685     0.28400
H61         H  0.83766885  0.87208751  0.82411196     0.41200
H62         H  0.88962910  0.79443011  0.78729514     0.31300
H63         H  0.88364923  0.79185200  0.82334131     0.38900
H64         H  0.75546983  0.81777614  0.78248233     0.30800
H65         H  0.86253639  0.78678102  0.74127812     0.30800
H66         H  0.80172172  0.74301875  0.78044477     0.31100
Zr67       Zr  0.80193450  0.93790860  0.94478406     2.17500
O68         O  0.79535494  0.94592406  0.97841110    -0.51300
O69         O  0.82444944  0.91139717  0.94975842    -0.74500
O70         O  0.78561160  0.90847793  0.95648783    -0.81300
O71         O  0.84316716  0.97196293  0.93368364    -0.83000
O72         O  0.76232330  0.90110165  0.93471971    -0.78600
O73         O  0.83357542  0.95054151  0.95608106    -0.90300
O74         O  0.83311344  0.90154744  0.91955839    -0.76200
O75         O  0.79400548  0.91603832  0.91929436    -0.85700
O76         O  0.82420348  0.94301397  0.91917803    -0.85400
O77         O  0.76908547  0.94628373  0.93530331    -0.72200
O78         O  0.79696136  0.97147493  0.93560794    -0.84300
Zr79       Zr  0.77889342  0.96004948  0.87522475     2.26400
Zr80       Zr  0.76181449  0.92419183  0.90930154     2.06300
Zr81       Zr  0.81857311  0.97587232  0.90926110     2.10000
Zr82       Zr  0.81708114  0.92051139  0.89479714     1.78800
O83         O  0.81111739  0.00904038  0.91965068    -0.93100
O84         O  0.81290348  0.88737661  0.88346924    -0.40900
O85         O  0.81152320  0.95282530  0.88435924    -0.77500
O86         O  0.78513656  0.92693398  0.88416171    -0.96200
O87         O  0.75620789  0.95675543  0.90044398    -0.89500
O88         O  0.78670289  0.98373726  0.89918577    -0.92400
C89         C  0.83403607  0.90050993  0.93797519     1.01400
C90         C  0.84617935  0.96194266  0.94883616     1.14300
C91         C  0.77217464  0.89756043  0.94984247     1.05100
O92         O  0.75037089  0.89169506  0.90334988    -0.94500
O93         O  0.74756421  0.91890646  0.87726857    -0.90300
O94         O  0.76357616  0.93650806  0.85564629    -0.83400
C95         C  0.75206731  0.92312727  0.85983557     1.11700
O96         O  0.75763232  0.98567806  0.95902628    -0.96500
Zr97       Zr  0.76452418  0.97963813  0.92507770     1.88900
O98         O  0.74837756  0.97377797  0.88489497    -0.73100
O99         O  0.72911026  0.93182999  0.92013235    -0.52400
O100        O  0.73002181  0.97701621  0.93021776    -0.97100
O101        O  0.76998279  0.01294372  0.93514818    -0.54300
O102        O  0.75095503  0.00105412  0.90004043    -0.73700
C103        C  0.74632746  0.99196450  0.88477266     0.98700
O104        O  0.76908973  0.97242427  0.84395432    -0.62500
O105        O  0.84574976  0.99600184  0.90141552    -0.57300
O106        O  0.80021097  0.98076418  0.85814682    -0.94000
O107        O  0.82761195  0.97819292  0.87559574    -0.92400
O108        O  0.84997109  0.92867773  0.88673263    -0.92700
O109        O  0.82630544  0.91039439  0.86224254    -0.91500
C110        C  0.81852383  0.98082519  0.85971522     1.17500
H111        H  0.83743985  0.93977276  0.92219420     0.33500
H112        H  0.78386482  0.91713726  0.87428824     0.44300
H113        H  0.78613722  0.99659869  0.89398587     0.37800
H114        H  0.76055688  0.94401408  0.94597840     0.34300
H115        H  0.82159771  0.87918281  0.89140938     0.26100
H116        H  0.72086044  0.92787885  0.90922608     0.32100
H117        H  0.72510263  0.99057866  0.93123807     0.38000
H118        H  0.84868173  0.93875532  0.87678452     0.32400
H119        H  0.84942574  0.00250313  0.91359808     0.31300
H120        H  0.81237037  0.01686985  0.90791161     0.33000
H121        H  0.75691409  0.01872283  0.93720381     0.31900
H122        H  0.81426958  0.91121538  0.85463255     0.35900
H123        H  0.77713360  0.96651050  0.83367455     0.28700
H124        H  0.78111991  0.94637970  0.97935241     0.32900
H125        H  0.76991501  0.98255075  0.96568199     0.35800
H126        H  0.85664669  0.98692495  0.89846553     0.28400
H127        H  0.75622704  0.96713396  0.84162046     0.41200
H128        H  0.76119370  0.88481658  0.89664049     0.31300
H129        H  0.79968775  0.88418227  0.88741489     0.38900
H130        H  0.77473358  0.01940652  0.92351964     0.30800
H131        H  0.72665534  0.92225085  0.93024065     0.30800
H132        H  0.79907162  0.95958547  0.97986786     0.31100
Zr133      Zr  0.96579601  0.90947670  0.80961262     2.17500
O134        O  0.99778245  0.92285071  0.80765587    -0.51300
O135        O  0.97289228  0.88186410  0.83028059    -0.74500
O136        O  0.97242001  0.92320012  0.84159137    -0.81300
O137        O  0.97046613  0.87421913  0.76756075    -0.83000
O138        O  0.94518657  0.93955367  0.85157854    -0.78600
O139        O  0.98701789  0.88545445  0.79336381    -0.90300
O140        O  0.94506981  0.86565723  0.83356821    -0.76200
O141        O  0.93777737  0.90901062  0.82929370    -0.85700
O142        O  0.94652872  0.88406801  0.79780634    -0.85400
O143        O  0.95021655  0.94095166  0.80522547    -0.72200
O144        O  0.95844725  0.91812838  0.77666250    -0.84300
Zr145      Zr  0.89573281  0.92006274  0.78175355     2.26400
Zr146      Zr  0.92239981  0.93992628  0.82531954     2.06300
Zr147      Zr  0.93999348  0.89174631  0.76519738     2.10000
Zr148      Zr  0.91897304  0.88317527  0.81771631     1.78800
O149        O  0.95781244  0.89758874  0.73580312    -0.93100
O150        O  0.91008896  0.88072776  0.85153660    -0.40900
O151        O  0.91176469  0.88933438  0.78468073    -0.77500
O152        O  0.90266821  0.91393371  0.81497438    -0.96200
O153        O  0.91342015  0.94678827  0.79313122    -0.89500
O154        O  0.92287989  0.92169040  0.76116422    -0.92400
C155        C  0.96321900  0.86754651  0.83624401     1.01400
C156        C  0.98489030  0.87363163  0.77908028     1.14300
C157        C  0.96236325  0.93285055  0.85420983     1.05100
O158        O  0.90468282  0.93975240  0.85557387    -0.94500
O159        O  0.89158243  0.95686873  0.82272451    -0.90300
O160        O  0.87560283  0.94501900  0.79682878    -0.83400
C161        C  0.87694788  0.95642899  0.81145393     1.11700
O162        O  0.97208117  0.96081100  0.76698283    -0.96500
Zr163      Zr  0.94012902  0.94834366  0.77257552     1.88900
O164        O  0.88701650  0.94264622  0.75757492    -0.73100
O165        O  0.93272751  0.97308216  0.82944609    -0.52400
O166        O  0.94464564  0.98217280  0.78121495    -0.97100
O167        O  0.94564315  0.94777180  0.73790932    -0.54300
O168        O  0.90987448  0.96530156  0.76044316    -0.73700
C169        C  0.89290586  0.95971478  0.75517707     0.98700
O170        O  0.86440441  0.90646294  0.78748667    -0.62500
O171        O  0.93480949  0.85763130  0.75805381    -0.57300
O172        O  0.88747207  0.90069933  0.75369446    -0.94000
O173        O  0.91533575  0.88788217  0.74112469    -0.92400
O174        O  0.91653424  0.84963290  0.80708304    -0.92700
O175        O  0.88575315  0.87261377  0.81848139    -0.91500
C176        C  0.89700030  0.89063888  0.74098926     1.17500
H177        H  0.95290639  0.87152008  0.79846342     0.33500
H178        H  0.89090328  0.91423720  0.82240279     0.44300
H179        H  0.91915517  0.92364669  0.74792876     0.37800
H180        H  0.95865121  0.95085594  0.80987920     0.34300
H181        H  0.90012841  0.89106203  0.85371364     0.26100
H182        H  0.92616260  0.98025072  0.81898203     0.32100
H183        H  0.93147025  0.98775719  0.78301127     0.38000
H184        H  0.91554693  0.84220598  0.81911124     0.32400
H185        H  0.94211112  0.85043504  0.76802855     0.31300
H186        H  0.95635852  0.88563392  0.72798978     0.33000
H187        H  0.95917307  0.94316537  0.73617885     0.31900
H188        H  0.87845295  0.88261021  0.82603166     0.35900
H189        H  0.86681657  0.89231447  0.78628064     0.28700
H190        H  0.00554402  0.91545778  0.81715243     0.32900
H191        H  0.97992456  0.95602645  0.77792367     0.35800
H192        H  0.92115109  0.85564884  0.76140766     0.28400
H193        H  0.86190251  0.90871048  0.80137715     0.41200
H194        H  0.90686304  0.95259156  0.86154588     0.31300
H195        H  0.90312662  0.86847555  0.85250415     0.38900
H196        H  0.94557925  0.96156791  0.73426275     0.30800
H197        H  0.92621015  0.97777976  0.84136390     0.30800
H198        H  0.99633699  0.93601758  0.81335766     0.31100
Zr199      Zr  0.89122904  0.78857897  0.94537678     2.17500
O200        O  0.85685411  0.79679896  0.94513422    -0.51300
O201        O  0.88234332  0.77496832  0.97546556    -0.74500
O202        O  0.87369347  0.76463502  0.92664266    -0.81300
O203        O  0.90226620  0.83942467  0.96334563    -0.83000
O204        O  0.89463617  0.74296394  0.91273562    -0.78600
O205        O  0.87848269  0.82146203  0.95044819    -0.90300
O206        O  0.90266978  0.74946875  0.97910658    -0.76200
O207        O  0.91063121  0.75963310  0.94652731    -0.85700
O208        O  0.91344381  0.79324663  0.97126203    -0.85400
O209        O  0.90490866  0.78446199  0.91373079    -0.72200
O210        O  0.90927684  0.81578537  0.93643255    -0.84300
Zr211      Zr  0.96637598  0.78974671  0.93130836     2.26400
Zr212      Zr  0.92607789  0.75652852  0.91606865     2.06300
Zr213      Zr  0.93174585  0.82006454  0.96186023     2.10000
Zr214      Zr  0.93332266  0.76446641  0.97148156     1.78800
O215        O  0.93365667  0.85428785  0.97039025    -0.93100
O216        O  0.94139008  0.72999902  0.97417842    -0.40900
O217        O  0.95226580  0.79190386  0.96297267    -0.77500
O218        O  0.94948130  0.76132676  0.94079449    -0.96200
O219        O  0.94330770  0.78409947  0.90675396    -0.89500
O220        O  0.94572672  0.81785526  0.93037104    -0.92400
C221        C  0.88590857  0.75764420  0.98056584     1.01400
C222        C  0.88505540  0.83735155  0.95722815     1.14300
C223        C  0.87752011  0.74941173  0.91629322     1.05100
O224        O  0.93227761  0.72269691  0.92379491    -0.94500
O225        O  0.95500277  0.74824667  0.89830455    -0.90300
O226        O  0.98008243  0.76513339  0.90990278    -0.83400
C227        C  0.97279115  0.75271719  0.89835944     1.11700
O228        O  0.89271834  0.82842043  0.89697043    -0.96500
Zr229      Zr  0.92301607  0.81196783  0.90537185     1.88900
O230        O  0.97846298  0.80631813  0.90295572    -0.73100
O231        O  0.91957382  0.74970548  0.88216405    -0.52400
O232        O  0.91390497  0.79953521  0.87380848    -0.97100
O233        O  0.92551773  0.84614222  0.89783961    -0.54300
O234        O  0.95158211  0.81556253  0.88649537    -0.73700
C235        C  0.96986345  0.81354199  0.88821332     0.98700
O236        O  0.99636326  0.77682325  0.94483796    -0.62500
O237        O  0.93419839  0.81637139  0.99660420    -0.57300
O238        O  0.98466112  0.81612529  0.94502527    -0.94000
O239        O  0.96296198  0.83390919  0.96289409    -0.92400
O240        O  0.93019914  0.77437096  0.00513882    -0.92700
O241        O  0.96207573  0.75525927  0.98960634    -0.91500
C242        C  0.97977372  0.83053940  0.95598341     1.17500
H243        H  0.90725707  0.79607083  0.98347298     0.33500
H244        H  0.95847464  0.75041333  0.94097500     0.44300
H245        H  0.95272996  0.82928916  0.92736564     0.37800
H246        H  0.89510180  0.78259070  0.90408280     0.34300
H247        H  0.92896124  0.72335293  0.97369245     0.26100
H248        H  0.91850178  0.73547218  0.88125234     0.32100
H249        H  0.91351920  0.81103554  0.86546209     0.38000
H250        H  0.92427864  0.76325578  0.01146780     0.32400
H251        H  0.94604997  0.82316837  0.00022729     0.31300
H252        H  0.93085007  0.85517768  0.98435072     0.33000
H253        H  0.92582708  0.84656025  0.88359989     0.31900
H254        H  0.96993116  0.76698889  0.98980863     0.35900
H255        H  0.99603294  0.78106338  0.95850837     0.28700
H256        H  0.85084352  0.78665727  0.95282865     0.32900
H257        H  0.88391166  0.82584000  0.90778739     0.35800
H258        H  0.92354432  0.82461323  0.00196425     0.28400
H259        H  0.99468406  0.76266345  0.94532583     0.41200
H260        H  0.92163176  0.71937932  0.93252066     0.31300
H261        H  0.94781648  0.72623165  0.96192707     0.38900
H262        H  0.93866029  0.84964344  0.90183296     0.30800
H263        H  0.90638210  0.75491264  0.87971342     0.30800
H264        H  0.85239293  0.79465620  0.93176242     0.31100
Zr265      Zr  0.30302587  0.47287357  0.93582956     2.17500
O266        O  0.28050730  0.50031282  0.93949814    -0.51300
O267        O  0.32772244  0.48947865  0.91880204    -0.74500
O268        O  0.32348504  0.49362439  0.95745211    -0.81300
O269        O  0.29299523  0.44835822  0.88698016    -0.83000
O270        O  0.32846477  0.47655764  0.98466382    -0.78600
O271        O  0.29132117  0.47773041  0.90226275    -0.90300
O272        O  0.35436620  0.47006281  0.92221666    -0.76200
O273        O  0.32682203  0.45985544  0.95631504    -0.85700
O274        O  0.32187274  0.45000462  0.91743792    -0.85400
O275        O  0.28665597  0.45827224  0.96280035    -0.72200
O276        O  0.28217664  0.44655608  0.92755608    -0.84300
Zr277      Zr  0.31283914  0.39799314  0.95699461     2.26400
Zr278      Zr  0.31192275  0.44617826  0.98342484     2.06300
Zr279      Zr  0.30200241  0.42384674  0.90972219     2.10000
Zr280      Zr  0.34736425  0.43968130  0.93801769     1.78800
O281        O  0.27651898  0.40527177  0.89493640    -0.93100
O282        O  0.37033279  0.45498891  0.95948148    -0.40900
O283        O  0.32798800  0.41304699  0.92986442    -0.77500
O284        O  0.33319378  0.42432682  0.96546271    -0.96200
O285        O  0.29243140  0.41955114  0.97535756    -0.89500
O286        O  0.28705236  0.40842676  0.93606669    -0.92400
C287        C  0.34564118  0.48546615  0.91607606     1.01400
C288        C  0.28964310  0.46662825  0.88719479     1.14300
C289        C  0.33164263  0.49126169  0.97416247     1.05100
O290        O  0.32139492  0.45433456  0.01625890    -0.94500
O291        O  0.32704956  0.42171536  0.00371863    -0.90300
O292        O  0.32270739  0.39216632  0.99006105    -0.83400
C293        C  0.32922833  0.40324326  0.00339203     1.11700
O294        O  0.24062788  0.45413637  0.95476096    -0.96500
Zr295      Zr  0.26745317  0.43055542  0.95431027     1.88900
O296        O  0.28518196  0.37939426  0.96569746    -0.73100
O297        O  0.28334868  0.45603518  0.00192750    -0.52400
O298        O  0.25281307  0.43334099  0.98616932    -0.97100
O299        O  0.24261181  0.42353421  0.93064196    -0.54300
O300        O  0.25760367  0.39737546  0.96140992    -0.73700
C301        C  0.26673898  0.38146511  0.96554343     0.98700
O302        O  0.33776697  0.37248891  0.95913966    -0.62500
O303        O  0.31486771  0.42293684  0.87711817    -0.57300
O304        O  0.31196252  0.37364456  0.93164556    -0.94000
O305        O  0.32292385  0.39567907  0.91268221    -0.92400
O306        O  0.36295161  0.42869717  0.90823716    -0.92700
O307        O  0.37595775  0.41927591  0.94343036    -0.91500
C308        C  0.31544385  0.37926826  0.91467620     1.17500
H309        H  0.32652281  0.45500841  0.90545051     0.33500
H310        H  0.34391467  0.41974193  0.97313784     0.44300
H311        H  0.27982024  0.39758214  0.93145000     0.37800
H312        H  0.27870050  0.46814149  0.96911061     0.34300
H313        H  0.36710745  0.45026837  0.97244652     0.26100
H314        H  0.28412429  0.44845793  0.01390321     0.32100
H315        H  0.25662086  0.42122091  0.99277029     0.38000
H316        H  0.37145653  0.43931449  0.90462336     0.32400
H317        H  0.30848655  0.41213496  0.87048885     0.31300
H318        H  0.27135703  0.41361913  0.88457381     0.33000
H319        H  0.23191829  0.41818716  0.93814333     0.31900
H320        H  0.37534614  0.41559678  0.95713374     0.35900
H321        H  0.34862570  0.37838205  0.96610283     0.28700
H322        H  0.28328204  0.50869893  0.92845354     0.32900
H323        H  0.22951709  0.44732886  0.96011970     0.35800
H324        H  0.32853348  0.41874718  0.87846385     0.28400
H325        H  0.33268206  0.36284309  0.96808690     0.41200
H326        H  0.33546268  0.45617519  0.01571683     0.31300
H327        H  0.36628866  0.46882492  0.95986358     0.38900
H328        H  0.24784562  0.41236504  0.92304639     0.30800
H329        H  0.28563288  0.46954163  0.00606545     0.30800
H330        H  0.28526483  0.50754132  0.95085248     0.31100
Zr331      Zr  0.42137369  0.43805784  0.78330938     2.17500
O332        O  0.43709978  0.44299662  0.75250097    -0.51300
O333        O  0.39663426  0.41527545  0.77456558    -0.74500
O334        O  0.43703382  0.40610080  0.77408329    -0.81300
O335        O  0.39153841  0.48533640  0.77988296    -0.83000
O336        O  0.45130815  0.39443504  0.80112716    -0.78600
O337        O  0.39894261  0.45760697  0.76325634    -0.90300
O338        O  0.38305889  0.40591430  0.80265730    -0.76200
O339        O  0.41888655  0.41578486  0.80913936    -0.85700
O340        O  0.39367238  0.44941434  0.80163904    -0.85400
O341        O  0.45099051  0.44094524  0.80146378    -0.72200
O342        O  0.42980171  0.47071434  0.79363675    -0.84300
Zr343      Zr  0.42752410  0.45902584  0.85563224     2.26400
Zr344      Zr  0.44825494  0.41821432  0.82698095     2.06300
Zr345      Zr  0.40246350  0.48116654  0.81209729     2.10000
Zr346      Zr  0.39243842  0.42752616  0.82769511     1.78800
O347        O  0.41029006  0.51263433  0.79945360    -0.93100
O348        O  0.39066641  0.39732132  0.84518878    -0.40900
O349        O  0.41465610  0.45236710  0.82545133    -0.77500
O350        O  0.42076188  0.42647846  0.84705556    -0.96200
O351        O  0.45589671  0.44947498  0.83926870    -0.89500
O352        O  0.42988613  0.48383131  0.83248679    -0.92400
C353        C  0.38543982  0.40479275  0.78447928     1.01400
C354        C  0.38997171  0.47418678  0.76518302     1.14300
C355        C  0.44655693  0.39271251  0.78334103     1.05100
O356        O  0.44941690  0.38531577  0.83904054    -0.94500
O357        O  0.45846645  0.41545286  0.86009848    -0.90300
O358        O  0.45132876  0.44374937  0.87553013    -0.83400
C359        C  0.45883194  0.42669855  0.87493540     1.11700
O360        O  0.47648258  0.47944484  0.78592355    -0.96500
Zr361      Zr  0.45775222  0.47285562  0.81470269     1.88900
O362        O  0.44872065  0.48168719  0.86869630    -0.73100
O363        O  0.48299824  0.41703753  0.82246134    -0.52400
O364        O  0.49128155  0.46144596  0.81420132    -0.97100
O365        O  0.45805202  0.50734780  0.80773814    -0.54300
O366        O  0.47082044  0.48663952  0.84528649    -0.73700
C367        C  0.46439206  0.48851162  0.86272932     0.98700
O368        O  0.40692993  0.45014560  0.88240329    -0.62500
O369        O  0.36818302  0.48169939  0.81960291    -0.57300
O370        O  0.40240034  0.48147701  0.86495888    -0.94000
O371        O  0.39058182  0.49912710  0.84030523    -0.92400
O372        O  0.35770360  0.43311361  0.82551099    -0.92700
O373        O  0.37683715  0.44532112  0.85418563    -0.91500
C374        C  0.39209183  0.49539233  0.85824424     1.17500
H375        H  0.38176489  0.44934642  0.79445267     0.33500
H376        H  0.41976604  0.41814436  0.85802918     0.44300
H377        H  0.43095683  0.49659179  0.83815141     0.37800
H378        H  0.46156126  0.43690877  0.79316186     0.34300
H379        H  0.38664629  0.40126129  0.85837471     0.26100
H380        H  0.48721102  0.40430614  0.82755034     0.32100
H381        H  0.49351383  0.45580650  0.82705514     0.38000
H382        H  0.35214036  0.42105172  0.83029296     0.32400
H383        H  0.36167173  0.48045542  0.80698891     0.31300
H384        H  0.40062186  0.52169617  0.80536471     0.33000
H385        H  0.45218220  0.51406044  0.81905988     0.31900
H386        H  0.37285839  0.43527239  0.86326842     0.35900
H387        H  0.41047446  0.45885126  0.89318776     0.28700
H388        H  0.43551825  0.43076382  0.74517397     0.32900
H389        H  0.48576441  0.48941633  0.78973480     0.35800
H390        H  0.36598188  0.46930622  0.82604525     0.28400
H391        H  0.41182080  0.43722608  0.88640397     0.41200
H392        H  0.43572355  0.38195865  0.84044104     0.31300
H393        H  0.37930330  0.39087887  0.83973115     0.38900
H394        H  0.44853746  0.50918439  0.79727515     0.30800
H395        H  0.48497762  0.41595281  0.80838668     0.30800
H396        H  0.45101078  0.44320562  0.75560353     0.31100
Zr397      Zr  0.29077573  0.26682701  0.81120800     2.17500
O398        O  0.27484394  0.23715501  0.80211140    -0.51300
O399        O  0.31594158  0.25365474  0.83295445    -0.74500
O400        O  0.31418167  0.24686260  0.79250320    -0.81300
O401        O  0.24693730  0.27945466  0.83803850    -0.83000
O402        O  0.32965845  0.26862028  0.77437754    -0.78600
O403        O  0.27115146  0.25705060  0.83895992    -0.90300
O404        O  0.32800238  0.27977412  0.84842125    -0.76200
O405        O  0.31883826  0.28567518  0.80810224    -0.85700
O406        O  0.28818231  0.29103905  0.83599785    -0.85400
O407        O  0.28908860  0.28185789  0.77973198    -0.72200
O408        O  0.26170516  0.28599906  0.80400384    -0.84300
Zr409      Zr  0.28935997  0.34374347  0.79794022     2.26400
Zr410      Zr  0.31712621  0.30101350  0.77737767     2.06300
Zr411      Zr  0.25945902  0.31033020  0.82871576     2.10000
Zr412      Zr  0.31714412  0.30864217  0.83353813     1.78800
O413        O  0.22745342  0.32241765  0.81930088    -0.93100
O414        O  0.35191042  0.30796244  0.82835977    -0.40900
O415        O  0.28886502  0.32604062  0.82627459    -0.77500
O416        O  0.31815206  0.32430385  0.80329742    -0.96200
O417        O  0.28974189  0.32133712  0.77155115    -0.89500
O418        O  0.25973455  0.32685784  0.79873859    -0.92400
C419        C  0.32727689  0.26167642  0.84518026     1.01400
C420        C  0.25542978  0.26487294  0.84568771     1.14300
C421        C  0.32724664  0.25149721  0.78035797     1.05100
O422        O  0.34985983  0.29422507  0.76622076    -0.94500
O423        O  0.33440050  0.32940161  0.76779814    -0.90300
O424        O  0.31793265  0.35476014  0.78161371    -0.83400
C425        C  0.33205542  0.34750809  0.77168571     1.11700
O426        O  0.24594203  0.27509164  0.75910669    -0.96500
Zr427      Zr  0.26139695  0.30287069  0.77374958     1.88900
O428        O  0.26885602  0.35621437  0.77329115    -0.73100
O429        O  0.30829704  0.29859326  0.74357788    -0.52400
O430        O  0.26739458  0.29680441  0.73962660    -0.97100
O431        O  0.22669439  0.30592366  0.77889808    -0.54300
O432        O  0.25209664  0.33300434  0.75774563    -0.73700
C433        C  0.25705567  0.35056908  0.76051665     0.98700
O434        O  0.28877734  0.37902323  0.80101359    -0.62500
O435        O  0.23923577  0.31543240  0.85721325    -0.57300
O436        O  0.28222209  0.36008838  0.82912212    -0.94000
O437        O  0.26974170  0.33761655  0.84860675    -0.92400
O438        O  0.31130080  0.31632627  0.86740015    -0.92700
O439        O  0.33125918  0.33725037  0.84787148    -0.91500
C440        C  0.27745981  0.35411754  0.84594138     1.17500
H441        H  0.28793594  0.28556357  0.84865618     0.33500
H442        H  0.32992753  0.33135192  0.80377984     0.44300
H443        H  0.24902742  0.33587002  0.79701804     0.37800
H444        H  0.28954448  0.27179918  0.76993771     0.34300
H445        H  0.35424144  0.29817432  0.81802976     0.26100
H446        H  0.32036109  0.30106721  0.73654341     0.32100
H447        H  0.25670384  0.30362387  0.73286381     0.38000
H448        H  0.32074141  0.30815267  0.87451718     0.32400
H449        H  0.23344803  0.32858953  0.85596361     0.31300
H450        H  0.22688174  0.33623848  0.82328115     0.33000
H451        H  0.22325473  0.29420122  0.78600999     0.31900
H452        H  0.33735441  0.34390742  0.83702353     0.35900
H453        H  0.29621504  0.38377506  0.78998399     0.28700
H454        H  0.28347891  0.22660694  0.80683635     0.32900
H455        H  0.24311414  0.26656947  0.77002656     0.35800
H456        H  0.22821540  0.30679727  0.85552615     0.28400
H457        H  0.27531800  0.38329027  0.79833423     0.41200
H458        H  0.35720842  0.29083454  0.77798491     0.31300
H459        H  0.35751941  0.30204784  0.84006322     0.38900
H460        H  0.22086876  0.30427230  0.76599521     0.30800
H461        H  0.30611993  0.28466925  0.74129788     0.30800
H462        H  0.27600012  0.23638017  0.78791579     0.31100
Zr463      Zr  0.41292436  0.27711490  0.93410529     2.17500
O464        O  0.42622953  0.24613565  0.94482345    -0.51300
O465        O  0.39200233  0.26387988  0.90977187    -0.74500
O466        O  0.38328355  0.26328411  0.94768269    -0.81300
O467        O  0.44397901  0.29443976  0.89278681    -0.83000
O468        O  0.38247022  0.27448316  0.97814129    -0.78600
O469        O  0.43220147  0.26701504  0.90529837    -0.90300
O470        O  0.37219395  0.28948326  0.90252885    -0.76200
O471        O  0.38482718  0.29586843  0.94246797    -0.85700
O472        O  0.40965884  0.30201220  0.91081500    -0.85400
O473        O  0.41899831  0.28991699  0.96624919    -0.72200
O474        O  0.44131044  0.29652976  0.93798417    -0.84300
Zr475      Zr  0.41173671  0.35159871  0.95262363     2.26400
Zr476      Zr  0.39007326  0.30792899  0.97448410     2.06300
Zr477      Zr  0.43746585  0.32133784  0.91443125     2.10000
Zr478      Zr  0.38115531  0.31975725  0.91850329     1.78800
O479        O  0.47210075  0.31522277  0.91572754    -0.93100
O480        O  0.35193059  0.33949365  0.92475962    -0.40900
O481        O  0.40831173  0.34007877  0.92017367    -0.77500
O482        O  0.38397703  0.33217682  0.95084322    -0.96200
O483        O  0.41668203  0.32844137  0.97714203    -0.89500
O484        O  0.44130649  0.33482490  0.94565790    -0.92400
C485        C  0.37779729  0.27166696  0.90070866     1.01400
C486        C  0.44128216  0.27618063  0.89209129     1.14300
C487        C  0.37537993  0.26457185  0.96447493     1.05100
O488        O  0.35544337  0.30929764  0.97994692    -0.94500
O489        O  0.38136526  0.33584351  0.99448227    -0.90300
O490        O  0.39161353  0.36231999  0.97916730    -0.83400
C491        C  0.38271653  0.35421198  0.99292293     1.11700
O492        O  0.46465292  0.28343432  0.98024534    -0.96500
Zr493      Zr  0.44572452  0.31148598  0.96952506     1.88900
O494        O  0.43217220  0.36596486  0.97570187    -0.73100
O495        O  0.39687874  0.29816241  0.00742716    -0.52400
O496        O  0.44372503  0.30644626  0.00407139    -0.97100
O497        O  0.47954617  0.31447918  0.96088339    -0.54300
O498        O  0.45563711  0.34353735  0.98291377    -0.73700
C499        C  0.44804956  0.36090299  0.98356084     0.98700
O500        O  0.39328519  0.38020723  0.94277751    -0.62500
O501        O  0.43845159  0.33082594  0.88079121    -0.57300
O502        O  0.43322729  0.37264736  0.93636793    -0.94000
O503        O  0.44758674  0.35481540  0.91251222    -0.92400
O504        O  0.35214980  0.32162838  0.89874838    -0.92700
O505        O  0.39203923  0.33891814  0.89166812    -0.91500
C506        C  0.44494977  0.37068835  0.92221088     1.17500
H507        H  0.40855557  0.29706022  0.89782025     0.33500
H508        H  0.37282318  0.33989316  0.95472310     0.44300
H509        H  0.45233428  0.34298463  0.94620963     0.37800
H510        H  0.42089253  0.27928820  0.97498598     0.34300
H511        H  0.34624636  0.33495239  0.93689912     0.26100
H512        H  0.40793616  0.28884264  0.00646689     0.32100
H513        H  0.43846961  0.31884496  0.00944829     0.38000
H514        H  0.35675428  0.32166582  0.88525860     0.32400
H515        H  0.42987816  0.34247656  0.88001029     0.31300
H516        H  0.47698964  0.32591112  0.92379228     0.33000
H517        H  0.48303228  0.30251637  0.95353205     0.31900
H518        H  0.39182739  0.32996449  0.88042527     0.35900
H519        H  0.39527109  0.38085677  0.92869137     0.28700
H520        H  0.42438864  0.24638099  0.95895551     0.32900
H521        H  0.46387309  0.27397958  0.96945754     0.35800
H522        H  0.45158787  0.33566254  0.87884846     0.28400
H523        H  0.37965195  0.37665391  0.94417624     0.41200
H524        H  0.35331997  0.29995631  0.99035310     0.31300
H525        H  0.35635839  0.35270836  0.92763851     0.38900
H526        H  0.48672393  0.31334223  0.97314534     0.30800
H527        H  0.40221160  0.30972890  0.01379984     0.30800
H528        H  0.44030830  0.24714668  0.94303024     0.31100
Zr529      Zr  0.53208547  0.21872461  0.55281682     2.17500
O530        O  0.52349287  0.25234609  0.54609913    -0.51300
O531        O  0.56102969  0.22505705  0.57105475    -0.74500
O532        O  0.52174456  0.23112314  0.58508178    -0.81300
O533        O  0.56602958  0.20233258  0.51338398    -0.83000
O534        O  0.49094689  0.22208331  0.58692257    -0.78600
O535        O  0.55574825  0.22949005  0.52950496    -0.90300
O536        O  0.56821256  0.19653607  0.58574022    -0.76200
O537        O  0.52438393  0.19791610  0.57840112    -0.85700
O538        O  0.55346562  0.19108694  0.54956187    -0.85400
O539        O  0.49877865  0.21084041  0.54753113    -0.72200
O540        O  0.52584602  0.20374484  0.52187933    -0.84300
Zr541      Zr  0.50581332  0.14746031  0.54276145     2.26400
Zr542      Zr  0.49148759  0.18975461  0.57374947     2.06300
Zr543      Zr  0.54621607  0.17520393  0.51996010     2.10000
Zr544      Zr  0.54643706  0.17138903  0.57612194     1.78800
O545        O  0.54073256  0.17255453  0.48543959    -0.93100
O546        O  0.54451504  0.17351383  0.61111278    -0.40900
O547        O  0.53893895  0.15560362  0.54667070    -0.77500
O548        O  0.51345346  0.16234112  0.57339118    -0.96200
O549        O  0.48474624  0.17511075  0.54346087    -0.89500
O550        O  0.51381437  0.16641898  0.51548556    -0.92400
C551        C  0.57142063  0.21430672  0.58205066     1.01400
C552        C  0.56691340  0.22039313  0.51740298     1.14300
C553        C  0.50544677  0.23057355  0.59399804     1.05100
O554        O  0.48938638  0.19025189  0.60868953    -0.94500
O555        O  0.47431016  0.16179803  0.58507950    -0.90300
O556        O  0.48814300  0.13574571  0.56980107    -0.83400
C557        C  0.47719531  0.14345863  0.58286894     1.11700
O558        O  0.48180409  0.22633875  0.50540451    -0.96500
Zr559      Zr  0.49303541  0.19484988  0.51682548     1.88900
O560        O  0.47652536  0.15471996  0.52547036    -0.73100
O561        O  0.45757528  0.19919137  0.57087263    -0.52400
O562        O  0.45846348  0.20056700  0.52091626    -0.97100
O563        O  0.50264362  0.20223127  0.48403368    -0.54300
O564        O  0.47990792  0.16842871  0.49779458    -0.73700
C565        C  0.47573282  0.15353892  0.50728637     0.98700
O566        O  0.49322240  0.11537778  0.53611665    -0.62500
O567        O  0.57838716  0.16514939  0.50884791    -0.57300
O568        O  0.52918580  0.12409428  0.52917018    -0.94000
O569        O  0.55538975  0.14121220  0.52157228    -0.92400
O570        O  0.57862713  0.15788220  0.56978348    -0.92700
O571        O  0.55091590  0.13918200  0.58954254    -0.91500
C572        C  0.54693357  0.12521609  0.52431416     1.17500
H573        H  0.56688285  0.19437383  0.54942061     0.33500
H574        H  0.51168910  0.15433353  0.58446974     0.44300
H575        H  0.51306869  0.15888772  0.50376301     0.37800
H576        H  0.49075408  0.22246357  0.54844995     0.34300
H577        H  0.53492633  0.16391313  0.61481688     0.26100
H578        H  0.45426701  0.20543576  0.58340014     0.32100
H579        H  0.45300110  0.18765804  0.52278266     0.38000
H580        H  0.57837632  0.15371297  0.55609799     0.32400
H581        H  0.58040230  0.17185684  0.49654051     0.31300
H582        H  0.54453820  0.15900233  0.48211879     0.33000
H583        H  0.50296752  0.18965703  0.47704030     0.31900
H584        H  0.54179139  0.13106107  0.58233865     0.35900
H585        H  0.49980701  0.10631237  0.54496917     0.28700
H586        H  0.52918016  0.25976074  0.55687437     0.32900
H587        H  0.48770572  0.23578103  0.51429567     0.35800
H588        H  0.58744007  0.17111647  0.51803653     0.28400
H589        H  0.49758798  0.11131798  0.52307794     0.41200
H590        H  0.50049621  0.18208942  0.61293213     0.31300
H591        H  0.55700842  0.16810143  0.61574293     0.38900
H592        H  0.51632434  0.20578352  0.48496185     0.30800
H593        H  0.45735971  0.20994753  0.56161308     0.30800
H594        H  0.50942292  0.25342643  0.54835369     0.31100
Zr595      Zr  0.65222488  0.22364997  0.67858893     2.17500
O596        O  0.65959401  0.25734522  0.68506339    -0.51300
O597        O  0.63231658  0.22902054  0.65035448    -0.74500
O598        O  0.67204762  0.23540016  0.65194668    -0.81300
O599        O  0.61598031  0.22262326  0.72034352    -0.83000
O600        O  0.69118429  0.21008800  0.64144045    -0.78600
O601        O  0.62295450  0.23937545  0.69332168    -0.90300
O602        O  0.62246473  0.19902011  0.64188058    -0.76200
O603        O  0.65502571  0.19645512  0.65712111    -0.85700
O604        O  0.62813719  0.20142719  0.68755903    -0.85400
O605        O  0.68452278  0.21007681  0.68260228    -0.72200
O606        O  0.66010951  0.21475882  0.71127409    -0.84300
Zr607      Zr  0.66898324  0.15345704  0.70202550     2.26400
Zr608      Zr  0.68650597  0.18244546  0.66109608     2.06300
Zr609      Zr  0.63524495  0.19284653  0.72010414     2.10000
Zr610      Zr  0.63064437  0.17498348  0.66588781     1.78800
O611        O  0.63910968  0.20438236  0.75310542    -0.93100
O612        O  0.63236262  0.15634835  0.63588731    -0.40900
O613        O  0.63680793  0.16579865  0.69845713    -0.77500
O614        O  0.66201925  0.16062138  0.66933455    -0.96200
O615        O  0.69433501  0.17346691  0.69287299    -0.89500
O616        O  0.66689723  0.17990839  0.72417597    -0.92400
C617        C  0.62406918  0.21720685  0.63887212     1.01400
C618        C  0.61247921  0.23619472  0.70833368     1.14300
C619        C  0.68477345  0.22758073  0.64045683     1.05100
O620        O  0.68307243  0.17187023  0.62774005    -0.94500
O621        O  0.69995352  0.14957195  0.65838223    -0.90300
O622        O  0.69350070  0.13413574  0.68605139    -0.83400
C623        C  0.70116528  0.13475697  0.66936067     1.11700
O624        O  0.70037491  0.23147010  0.72777027    -0.96500
Zr625      Zr  0.69218300  0.19990772  0.71470554     1.88900
O626        O  0.69116061  0.14943540  0.72765280    -0.73100
O627        O  0.72124243  0.18494799  0.65833736    -0.52400
O628        O  0.72298793  0.21195803  0.70407338    -0.97100
O629        O  0.69465827  0.20170851  0.74969078    -0.54300
O630        O  0.71349298  0.17072783  0.72042588    -0.73700
C631        C  0.70862645  0.15379534  0.72597117     0.98700
O632        O  0.65724317  0.12100275  0.69650587    -0.62500
O633        O  0.60140320  0.18604289  0.72551670    -0.57300
O634        O  0.65695014  0.14296074  0.73166944    -0.94000
O635        O  0.63033734  0.16188704  0.73629812    -0.92400
O636        O  0.59598989  0.17889311  0.67086525    -0.92700
O637        O  0.61518057  0.14378731  0.66535837    -0.91500
C638        C  0.64039481  0.14613556  0.73891662     1.17500
H639        H  0.61514978  0.20649085  0.68614198     0.33500
H640        H  0.66294202  0.14899466  0.66148143     0.44300
H641        H  0.66859690  0.17615846  0.73740968     0.37800
H642        H  0.69382239  0.21946790  0.67891806     0.34300
H643        H  0.62211571  0.16210762  0.62767784     0.26100
H644        H  0.72371051  0.18606902  0.64436917     0.32100
H645        H  0.73082795  0.20019204  0.70076281     0.38000
H646        H  0.59034624  0.17713820  0.65789462     0.32400
H647        H  0.59771707  0.19346415  0.73730346     0.31300
H648        H  0.62579366  0.20626793  0.75802490     0.33000
H649        H  0.69664202  0.18817075  0.75388537     0.31900
H650        H  0.62126831  0.13645634  0.67598706     0.35900
H651        H  0.65674607  0.11943488  0.68232991     0.28700
H652        H  0.65481815  0.26002290  0.69828801     0.32900
H653        H  0.69472865  0.24081735  0.71852967     0.35800
H654        H  0.59425473  0.19255430  0.71498752     0.28400
H655        H  0.64355588  0.12182102  0.70048339     0.41200
H656        H  0.69636153  0.16853785  0.62341881     0.31300
H657        H  0.64453141  0.16019249  0.62979588     0.38900
H658        H  0.68153991  0.20549955  0.75420733     0.30800
H659        H  0.72395468  0.19785473  0.66383501     0.30800
H660        H  0.65069136  0.26483184  0.67666221     0.31100
Zr661      Zr  0.65532055  0.05642675  0.53264691     2.17500
O662        O  0.66299124  0.05163370  0.49870509    -0.51300
O663        O  0.62445382  0.07277543  0.53009847    -0.74500
O664        O  0.62738825  0.03882168  0.52055412    -0.81300
O665        O  0.68405573  0.10116325  0.54474505    -0.83000
O666        O  0.62324183  0.01459238  0.54160037    -0.78600
O667        O  0.66440969  0.08882557  0.52164352    -0.90300
O668        O  0.61074202  0.07165547  0.55957917    -0.76200
O669        O  0.63700732  0.04107286  0.55648903    -0.85700
O670        O  0.65423475  0.07717569  0.56026546    -0.85400
O671        O  0.67122148  0.02535816  0.53807166    -0.72200
O672        O  0.68834383  0.05886665  0.54269060    -0.84300
Zr673      Zr  0.68256531  0.03305694  0.59970823     2.26400
Zr674      Zr  0.65176805  0.01031336  0.56198443     2.06300
Zr675      Zr  0.68660322  0.07900478  0.57097077     2.10000
Zr676      Zr  0.63487436  0.06202917  0.58339831     1.78800
O677        O  0.71899832  0.08988027  0.56460996    -0.93100
O678        O  0.60539359  0.04701790  0.59395552    -0.40900
O679        O  0.66723533  0.06411335  0.59458773    -0.77500
O680        O  0.64930495  0.03102471  0.59025229    -0.96200
O681        O  0.68449177  0.01216271  0.57229552    -0.89500
O682        O  0.70256149  0.04891648  0.57737588    -0.92400
C683        C  0.61006620  0.07524991  0.54145932     1.01400
C684        C  0.67516974  0.10215290  0.52865091     1.14300
C685        C  0.61727741  0.02527596  0.52767550     1.05100
O686        O  0.62868541  0.98440762  0.56267274    -0.94500
O687        O  0.64973245  0.99137932  0.59142478    -0.90300
O688        O  0.66654825  0.00699288  0.61447302    -0.83400
C689        C  0.65539086  0.99361189  0.60893152     1.11700
O690        O  0.71199472  0.02074308  0.51612443    -0.96500
Zr691      Zr  0.70417945  0.02819412  0.54964625     1.88900
O692        O  0.70652757  0.00841405  0.59244036    -0.73100
O693        O  0.66748576  0.98496659  0.54235810    -0.52400
O694        O  0.71259891  0.99451730  0.54197374    -0.97100
O695        O  0.73133774  0.04623196  0.53793127    -0.54300
O696        O  0.72885251  0.02065435  0.57449574    -0.73700
C697        C  0.72389798  0.01292340  0.59033886     0.98700
O698        O  0.69290952  0.02903661  0.63300659    -0.62500
O699        O  0.67506482  0.11047482  0.58316933    -0.57300
O700        O  0.69816370  0.05680488  0.61989289    -0.94000
O701        O  0.69999455  0.08423881  0.60246890    -0.92400
O702        O  0.62797265  0.09611983  0.59049082    -0.92700
O703        O  0.63038602  0.06775959  0.61783742    -0.91500
C704        C  0.70249628  0.07457548  0.61790137     1.17500
H705        H  0.64886717  0.08982739  0.55727821     0.33500
H706        H  0.64108064  0.02595836  0.60002998     0.44300
H707        H  0.71500395  0.05165291  0.58277106     0.37800
H708        H  0.67115619  0.01789803  0.52622043     0.34300
H709        H  0.59771828  0.05769956  0.60010686     0.26100
H710        H  0.66612801  0.97297060  0.54979937     0.32100
H711        H  0.71360687  0.98807815  0.55458283     0.38000
H712        H  0.61374085  0.09723497  0.59125930     0.32400
H713        H  0.66906585  0.10781254  0.59575447     0.31300
H714        H  0.71792066  0.10417802  0.56548003     0.33000
H715        H  0.73503771  0.05449997  0.54899291     0.31900
H716        H  0.63971659  0.05873385  0.62406817     0.35900
H717        H  0.70069768  0.01682566  0.63302250     0.28700
H718        H  0.66172571  0.03757154  0.49634355     0.32900
H719        H  0.70136037  0.02683095  0.50866003     0.35800
H720        H  0.68685333  0.11755736  0.58640533     0.28400
H721        H  0.68121926  0.02617869  0.64046720     0.41200
H722        H  0.62919398  0.97812880  0.54978390     0.31300
H723        H  0.60915734  0.03847298  0.60471809     0.38900
H724        H  0.72571987  0.05540967  0.52851102     0.30800
H725        H  0.65895092  0.98333591  0.53107269     0.30800
H726        H  0.67700601  0.05375874  0.49787085     0.31100
Zr727      Zr  0.51232995  0.06138194  0.67112898     2.17500
O728        O  0.48371641  0.04733423  0.68480978    -0.51300
O729        O  0.49806375  0.08261051  0.64713246    -0.74500
O730        O  0.49454378  0.08833806  0.68837382    -0.81300
O731        O  0.52445443  0.02156436  0.63416123    -0.83000
O732        O  0.51647501  0.10311755  0.70732875    -0.78600
O733        O  0.49923098  0.03980618  0.64570007    -0.90300
O734        O  0.52224794  0.09963118  0.63388596    -0.76200
O735        O  0.53127364  0.08942350  0.67245946    -0.85700
O736        O  0.53451771  0.05959853  0.64490786    -0.85400
O737        O  0.52886979  0.05969252  0.70176895    -0.72200
O738        O  0.53228918  0.03268559  0.67715122    -0.84300
Zr739      Zr  0.58937021  0.05910767  0.67938511     2.26400
Zr740      Zr  0.54759041  0.08805485  0.70241524     2.06300
Zr741      Zr  0.55356164  0.03098731  0.65012868     2.10000
Zr742      Zr  0.55299345  0.08794155  0.64608366     1.78800
O743        O  0.54915197  0.99635642  0.65292360    -0.93100
O744        O  0.55302117  0.12298994  0.65051466    -0.40900
O745        O  0.57279367  0.05917168  0.64922083    -0.77500
O746        O  0.56990336  0.08809059  0.67602989    -0.96200
O747        O  0.56868923  0.06087046  0.70667950    -0.89500
O748        O  0.57106351  0.03052411  0.67960389    -0.92400
C749        C  0.50451422  0.09545035  0.63583240     1.01400
C750        C  0.50662832  0.02683148  0.63405126     1.14300
C751        C  0.49940910  0.10159776  0.70068060     1.05100
O752        O  0.54943088  0.12319347  0.70335590    -0.94500
O753        O  0.57621585  0.09620089  0.71918352    -0.90300
O754        O  0.60142564  0.08027500  0.70503336    -0.83400
C755        C  0.59414005  0.09186892  0.71798087     1.11700
O756        O  0.52552935  0.01391584  0.72114457    -0.96500
Zr757      Zr  0.55098955  0.03247850  0.70684473     1.88900
O758        O  0.60636185  0.04036720  0.70226301    -0.73100
O759        O  0.54081354  0.08504227  0.73662011    -0.52400
O760        O  0.54466752  0.04197182  0.74016929    -0.97100
O761        O  0.55458641  0.99728080  0.70592522    -0.54300
O762        O  0.58395541  0.02665306  0.72130745    -0.73700
C763        C  0.60158888  0.03047034  0.71669910     0.98700
O764        O  0.61707473  0.07462265  0.66544853    -0.62500
O765        O  0.56161835  0.02954468  0.61593212    -0.57300
O766        O  0.60708870  0.03279506  0.66189640    -0.94000
O767        O  0.58474031  0.01576627  0.64589011    -0.92400
O768        O  0.55541612  0.08289329  0.61133324    -0.92700
O769        O  0.58202177  0.10107942  0.63222725    -0.91500
C770        C  0.60207192  0.01826746  0.65129900     1.17500
H771        H  0.52806875  0.05903814  0.63261005     0.33500
H772        H  0.57785831  0.09930298  0.67692231     0.44300
H773        H  0.57904929  0.01897061  0.68096318     0.37800
H774        H  0.51933034  0.06016265  0.71188619     0.34300
H775        H  0.55185312  0.12822331  0.63735647     0.26100
H776        H  0.53808868  0.09849850  0.74097377     0.32100
H777        H  0.55308156  0.03319771  0.74781264     0.38000
H778        H  0.54216467  0.08454734  0.60625255     0.32400
H779        H  0.54919544  0.02972837  0.60894855     0.31300
H780        H  0.53792556  0.99523030  0.66158385     0.33000
H781        H  0.56688381  0.99429258  0.71260199     0.31900
H782        H  0.58947207  0.10593360  0.64334615     0.35900
H783        H  0.61535470  0.08850223  0.66893623     0.28700
H784        H  0.48653193  0.04645306  0.69874348     0.32900
H785        H  0.51502382  0.01431329  0.71151123     0.35800
H786        H  0.56708160  0.04229212  0.61324782     0.28400
H787        H  0.62818166  0.07005183  0.67326078     0.41200
H788        H  0.56196327  0.12599388  0.69736060     0.31300
H789        H  0.54050340  0.12638712  0.65669675     0.38900
H790        H  0.55719678  0.99388129  0.69228015     0.30800
H791        H  0.52820486  0.07882208  0.73749664     0.30800
H792        H  0.48405611  0.03371947  0.68018312     0.31100
Zr793      Zr  0.44214356  0.26381980  0.76595313     2.17500
O794        O  0.41590613  0.28667168  0.77432441    -0.51300
O795        O  0.44526550  0.26116824  0.80118833    -0.74500
O796        O  0.41025784  0.24892614  0.76672478    -0.81300
O797        O  0.47754339  0.30480429  0.75661263    -0.83000
O798        O  0.41165012  0.21790406  0.75524282    -0.78600
O799        O  0.44688919  0.29925825  0.76615970    -0.90300
O800        O  0.46967670  0.23989882  0.80848374    -0.76200
O801        O  0.45003584  0.23044973  0.77115398    -0.85700
O802        O  0.47563518  0.26218841  0.77374026    -0.85400
O803        O  0.43494741  0.24711737  0.73609862    -0.72200
O804        O  0.45868624  0.27600293  0.73836142    -0.84300
Zr805      Zr  0.49287677  0.22368939  0.72131492     2.26400
Zr806      Zr  0.44338954  0.21363130  0.74149724     2.06300
Zr807      Zr  0.49226021  0.27383897  0.74617999     2.10000
Zr808      Zr  0.48362006  0.22882235  0.77826429     1.78800
O809        O  0.50258311  0.29961175  0.72536174    -0.93100
O810        O  0.47562927  0.19992052  0.79595469    -0.40900
O811        O  0.50051438  0.24034295  0.75088356    -0.77500
O812        O  0.47687265  0.21151539  0.74908569    -0.96200
O813        O  0.45949955  0.22537762  0.71370276    -0.89500
O814        O  0.48557048  0.25723094  0.71661859    -0.92400
C815        C  0.45602427  0.25184149  0.81323759     1.01400
C816        C  0.46087171  0.31071334  0.76279745     1.14300
C817        C  0.40264936  0.23255248  0.76269847     1.05100
O818        O  0.43989550  0.18676075  0.76341339    -0.94500
O819        O  0.45529400  0.18379745  0.72580267    -0.90300
O820        O  0.48533068  0.18963016  0.71439918    -0.83400
C821        C  0.47118346  0.17837575  0.71760503     1.11700
O822        O  0.42217950  0.27721671  0.70437594    -0.96500
Zr823      Zr  0.45224512  0.25879342  0.70893055     1.88900
O824        O  0.49215643  0.22805419  0.68645860    -0.73100
O825        O  0.41793117  0.20454555  0.71931249    -0.52400
O826        O  0.43135687  0.24095610  0.68731074    -0.97100
O827        O  0.45617719  0.29065726  0.69516350    -0.54300
O828        O  0.47116018  0.25255107  0.67988330    -0.73700
C829        C  0.48431396  0.24013149  0.67469494     0.98700
O830        O  0.51858134  0.19889305  0.72125862    -0.62500
O831        O  0.51465804  0.28324486  0.77137778    -0.57300
O832        O  0.52462972  0.23807693  0.71864320    -0.94000
O833        O  0.52491762  0.26710155  0.73457359    -0.92400
O834        O  0.51119549  0.24300122  0.79418165    -0.92700
O835        O  0.51002703  0.20526023  0.78217130    -0.91500
C836        C  0.53312715  0.25334570  0.72470449     1.17500
H837        H  0.47834394  0.26992392  0.78503438     0.33500
H838        H  0.48078784  0.19818809  0.75098195     0.44300
H839        H  0.49340127  0.26249081  0.70657758     0.37800
H840        H  0.42144516  0.24849986  0.73296936     0.34300
H841        H  0.46236696  0.20252187  0.80075701     0.26100
H842        H  0.42431235  0.20351757  0.70658181     0.32100
H843        H  0.42803391  0.25005805  0.67687778     0.38000
H844        H  0.50930769  0.24046639  0.80803318     0.32400
H845        H  0.51981955  0.29562597  0.76695966     0.31300
H846        H  0.49178193  0.30165554  0.71626845     0.33000
H847        H  0.46965208  0.29059291  0.69049976     0.31900
H848        H  0.51566169  0.20367250  0.76913253     0.35900
H849        H  0.52588291  0.20070655  0.70922668     0.28700
H850        H  0.40927944  0.28112728  0.78551044     0.32900
H851        H  0.41916895  0.28290423  0.71722530     0.35800
H852        H  0.50660196  0.28686108  0.78267048     0.28400
H853        H  0.52746011  0.20273559  0.73168992     0.41200
H854        H  0.42702378  0.18165123  0.76052285     0.31300
H855        H  0.47414185  0.18973456  0.78596873     0.38900
H856        H  0.45598160  0.29971463  0.70633362     0.30800
H857        H  0.41509599  0.19103422  0.72261759     0.30800
H858        H  0.40656609  0.28593925  0.76358620     0.31100
Zr859      Zr  0.26685881  0.83589641  0.32873218     2.17500
O860        O  0.26172666  0.86816860  0.34278987    -0.51300
O861        O  0.24451263  0.85169063  0.30734906    -0.74500
O862        O  0.29320544  0.85683575  0.31949329    -0.81300
O863        O  0.23192191  0.81267423  0.36566253    -0.83000
O864        O  0.29932464  0.84131727  0.29203894    -0.78600
O865        O  0.25065686  0.83845252  0.36002726    -0.90300
O866        O  0.24115837  0.83287003  0.28061208    -0.76200
O867        O  0.27418143  0.82286093  0.29746973    -0.85700
O868        O  0.24271741  0.81303883  0.32102740    -0.85400
O869        O  0.29916985  0.82201087  0.33101953    -0.72200
O870        O  0.26912450  0.81165203  0.35274192    -0.84300
Zr871      Zr  0.28641509  0.76035386  0.31803693     2.26400
Zr872      Zr  0.30547157  0.80793416  0.29978297     2.06300
Zr873      Zr  0.24574668  0.78821822  0.34462742     2.10000
Zr874      Zr  0.25087501  0.79974689  0.29022657     1.78800
O875        O  0.24197527  0.77747190  0.37754298    -0.93100
O876        O  0.26098455  0.80160918  0.25675407    -0.40900
O877        O  0.25429124  0.77463853  0.31385716    -0.77500
O878        O  0.28227489  0.78389403  0.29259331    -0.96200
O879        O  0.30892721  0.78487461  0.32468923    -0.89500
O880        O  0.27770562  0.77471272  0.34869161    -0.92400
C881        C  0.23930248  0.84909744  0.28990461     1.01400
C882        C  0.23846146  0.82918329  0.37010511     1.14300
C883        C  0.30348712  0.85437665  0.30427301     1.05100
O884        O  0.31547293  0.81339034  0.26673876    -0.94500
O885        O  0.32386869  0.78136752  0.28528977    -0.90300
O886        O  0.31298294  0.75246657  0.29531951    -0.83400
C887        C  0.32469604  0.76280984  0.28564118     1.11700
O888        O  0.30029628  0.82299984  0.38071194    -0.96500
Zr889      Zr  0.30083953  0.79830535  0.35535821     1.88900
O890        O  0.31508899  0.74770382  0.33515000    -0.73100
O891        O  0.33692604  0.81926003  0.30970382    -0.52400
O892        O  0.33179329  0.81362171  0.35902174    -0.97100
O893        O  0.29836986  0.78366033  0.38691358    -0.54300
O894        O  0.32353053  0.77173627  0.35589368    -0.73700
C895        C  0.32630285  0.75523312  0.34779611     0.98700
O896        O  0.27789869  0.73159799  0.29967669    -0.62500
O897        O  0.21114573  0.78623050  0.33946379    -0.57300
O898        O  0.26949662  0.73911415  0.34054070    -0.94000
O899        O  0.24081945  0.75403502  0.34025842    -0.92400
O900        O  0.21590613  0.79798558  0.29150535    -0.92700
O901        O  0.23801512  0.77418297  0.26995815    -0.91500
C902        C  0.25235385  0.74149534  0.34750749     1.17500
H903        H  0.23000542  0.81909243  0.32118112     0.33500
H904        H  0.28529635  0.77777402  0.28033461     0.44300
H905        H  0.27825563  0.76586772  0.35930120     0.37800
H906        H  0.30885390  0.83111120  0.33447429     0.34300
H907        H  0.24977977  0.80752954  0.24999704     0.26100
H908        H  0.34461468  0.81977993  0.29774062     0.32100
H909        H  0.34115488  0.80500671  0.35207729     0.38000
H910        H  0.21116987  0.80733571  0.28180710     0.32400
H911        H  0.20646993  0.79971761  0.33749853     0.31300
H912        H  0.22804710  0.77916855  0.38038450     0.33000
H913        H  0.31005136  0.78770166  0.39386501     0.31900
H914        H  0.24791029  0.76359525  0.27044890     0.35900
H915        H  0.28382905  0.72067903  0.30685108     0.28700
H916        H  0.26181475  0.87713736  0.33180510     0.32900
H917        H  0.29637953  0.83510315  0.37413572     0.35800
H918        H  0.20993348  0.77988161  0.32668331     0.28400
H919        H  0.26386458  0.73045037  0.30171057     0.41200
H920        H  0.32805747  0.81969993  0.26771984     0.31300
H921        H  0.27079513  0.81172366  0.25674877     0.38900
H922        H  0.30038587  0.76955387  0.38482975     0.30800
H923        H  0.34280176  0.80835523  0.31689244     0.30800
H924        H  0.27369952  0.87082196  0.34997950     0.31100
Zr925      Zr  0.41754439  0.77140862  0.42813343     2.17500
O926        O  0.42930715  0.74189277  0.44338460    -0.51300
O927        O  0.39853163  0.75701687  0.40264857    -0.74500
O928        O  0.38752424  0.75743590  0.44051745    -0.81300
O929        O  0.45782021  0.77981001  0.39267508    -0.83000
O930        O  0.37127096  0.78128313  0.45726880    -0.78600
O931        O  0.43894907  0.75613664  0.40361356    -0.90300
O932        O  0.38532553  0.78268885  0.38675497    -0.76200
O933        O  0.39039582  0.79291594  0.42667118    -0.85700
O934        O  0.42256810  0.79319386  0.40243065    -0.85400
O935        O  0.41701860  0.78821641  0.45896437    -0.72200
O936        O  0.44644939  0.78851236  0.43698566    -0.84300
Zr937      Zr  0.42067768  0.84767619  0.43679597     2.26400
Zr938      Zr  0.38951122  0.80961913  0.45681216     2.06300
Zr939      Zr  0.45132083  0.80952040  0.41046835     2.10000
Zr940      Zr  0.39494738  0.81357106  0.40026266     1.78800
O941        O  0.48459775  0.80043986  0.41796305    -0.93100
O942        O  0.36005914  0.81839347  0.40008272    -0.40900
O943        O  0.42367546  0.83069160  0.40673646    -0.77500
O944        O  0.39174660  0.83101686  0.43012058    -0.96200
O945        O  0.41689074  0.82789437  0.46392734    -0.89500
O946        O  0.44912980  0.82782005  0.43976675    -0.92400
C947        C  0.38809300  0.76442504  0.38927771     1.01400
C948        C  0.45147605  0.76259202  0.39175544     1.14300
C949        C  0.37285688  0.76427123  0.45014574     1.05100
O950        O  0.35629441  0.82130568  0.45324074    -0.94500
O951        O  0.38754399  0.83764509  0.47728296    -0.90300
O952        O  0.39583305  0.86181302  0.45783689    -0.83400
C953        C  0.38725292  0.85542097  0.47276720     1.11700
O954        O  0.45956433  0.78128868  0.48416328    -0.96500
Zr955      Zr  0.44448244  0.80787946  0.46654393     1.88900
O956        O  0.43765752  0.86370457  0.46148727    -0.73100
O957        O  0.38313198  0.79832477  0.48927883    -0.52400
O958        O  0.43143479  0.80473264  0.49884882    -0.97100
O959        O  0.47952425  0.80779061  0.46850223    -0.54300
O960        O  0.45059349  0.84065672  0.48111919    -0.73700
C961        C  0.44687895  0.85851049  0.47644466     0.98700
O962        O  0.40761227  0.87767249  0.42336398    -0.62500
O963        O  0.45824014  0.81694603  0.37694690    -0.57300
O964        O  0.44532023  0.86296664  0.41832720    -0.94000
O965        O  0.46645351  0.84023821  0.40639875    -0.92400
O966        O  0.39984107  0.81204875  0.36556631    -0.92700
O967        O  0.39063422  0.84403294  0.38333775    -0.91500
C968        C  0.46063306  0.85783718  0.40898255     1.17500
H969        H  0.42341559  0.78679831  0.39002667     0.33500
H970        H  0.38088057  0.84004523  0.42979972     0.44300
H971        H  0.46039525  0.83543707  0.44188689     0.37800
H972        H  0.41525760  0.77897155  0.46906091     0.34300
H973        H  0.35749550  0.83121924  0.40620098     0.26100
H974        H  0.38852388  0.78493648  0.48984382     0.32100
H975        H  0.42665015  0.81791202  0.50248705     0.38000
H976        H  0.41363891  0.81480254  0.36379252     0.32400
H977        H  0.45165952  0.80700563  0.36918508     0.31300
H978        H  0.48455545  0.78631009  0.42010203     0.33000
H979        H  0.48305785  0.82131697  0.46610366     0.31900
H980        H  0.38258033  0.85235815  0.39202185     0.35900
H981        H  0.40995640  0.87648435  0.40933344     0.28700
H982        H  0.42164328  0.73153401  0.43743726     0.32900
H983        H  0.46240427  0.77120548  0.47422139     0.35800
H984        H  0.45072475  0.82902179  0.37435724     0.28400
H985        H  0.41638333  0.88783839  0.42785107     0.41200
H986        H  0.35150670  0.81434776  0.44172741     0.31300
H987        H  0.35687881  0.82032769  0.38635643     0.38900
H988        H  0.48399885  0.80050061  0.45690885     0.30800
H989        H  0.39164661  0.80586652  0.49777317     0.30800
H990        H  0.42450573  0.74298516  0.45678680     0.31100
Zr991      Zr  0.28205999  0.97705447  0.43101034     2.17500
O992        O  0.26988853  0.00795492  0.44403682    -0.51300
O993        O  0.29667459  0.98849071  0.40123597    -0.74500
O994        O  0.31137879  0.99414160  0.44078712    -0.81300
O995        O  0.24352699  0.95819169  0.39823519    -0.83000
O996        O  0.31014466  0.98299401  0.47004647    -0.78600
O997        O  0.25711615  0.98626210  0.40794197    -0.90300
O998        O  0.31590417  0.96330855  0.39070472    -0.76200
O999        O  0.31212534  0.96008751  0.43470362    -0.85700
O1000       O  0.28275862  0.95133931  0.40783543    -0.85400
O1001       O  0.28044291  0.96427606  0.46351465    -0.72200
O1002       O  0.25565278  0.95618511  0.43925059    -0.84300
Zr1003     Zr  0.28940423  0.90230980  0.44980046     2.26400
Zr1004     Zr  0.31143073  0.94859512  0.46695402     2.06300
Zr1005     Zr  0.25713339  0.93094602  0.41545574     2.10000
Zr1006     Zr  0.31306246  0.93522458  0.41084125     1.78800
O1007       O  0.22221641  0.93104846  0.41792086    -0.93100
O1008       O  0.34754347  0.94088525  0.41012269    -0.40900
O1009       O  0.28759289  0.91380312  0.41747216    -0.77500
O1010       O  0.31507504  0.92340989  0.44297114    -0.96200
O1011       O  0.28686325  0.92658672  0.47425805    -0.89500
O1012       O  0.25838346  0.91759924  0.44665286    -0.92400
C1013       C  0.30843638  0.98040775  0.38905590     1.01400
C1014       C  0.24560415  0.97653751  0.39731013     1.14300
C1015       C  0.31888710  0.99250657  0.45755538     1.05100
O1016       O  0.34548960  0.95418984  0.46205411    -0.94500
O1017       O  0.32686327  0.92337806  0.48483797    -0.90300
O1018       O  0.31678280  0.89550121  0.47096781    -0.83400
C1019       C  0.32776319  0.90508816  0.48237378     1.11700
O1020       O  0.23823768  0.96888326  0.48505419    -0.96500
Zr1021     Zr  0.25595916  0.94136980  0.47077805     1.88900
O1022       O  0.27539986  0.88975192  0.47809328    -0.73100
O1023       O  0.31435191  0.95802150  0.50073542    -0.52400
O1024       O  0.26159819  0.94589296  0.50512095    -0.97100
O1025       O  0.22125179  0.94029241  0.46570936    -0.54300
O1026       O  0.24838486  0.90836576  0.48296921    -0.73700
C1027       C  0.25832273  0.89226738  0.48446823     0.98700
O1028       O  0.30547535  0.87227630  0.43895477    -0.62500
O1029       O  0.25808644  0.92152044  0.38152916    -0.57300
O1030       O  0.26597769  0.88048819  0.43572745    -0.94000
O1031       O  0.24780189  0.89763419  0.41437669    -0.92400
O1032       O  0.30477138  0.92301122  0.37895604    -0.92700
O1033       O  0.33338680  0.90725243  0.40179186    -0.91500
C1034       C  0.25233006  0.88198775  0.42322394     1.17500
H1035       H  0.28079864  0.95572374  0.39484062     0.33500
H1036       H  0.32742060  0.91676698  0.44428069     0.44300
H1037       H  0.24780362  0.90908453  0.44839833     0.37800
H1038       H  0.27828490  0.97475985  0.47266958     0.34300
H1039       H  0.34861348  0.95511885  0.41046821     0.26100
H1040       H  0.30853943  0.94748273  0.50806621     0.32100
H1041       H  0.27186904  0.93626706  0.50838693     0.38000
H1042       H  0.31487309  0.92785289  0.37035631     0.32400
H1043       H  0.26473547  0.90865721  0.38118919     0.31300
H1044       H  0.21774014  0.92991237  0.40443720     0.33000
H1045       H  0.21576958  0.93859501  0.47871515     0.31900
H1046       H  0.32489986  0.89605997  0.40296237     0.35900
H1047       H  0.31926898  0.87540819  0.43805052     0.28700
H1048       H  0.26451675  0.00481438  0.45677881     0.32900
H1049       H  0.23728889  0.97846195  0.47460594     0.35800
H1050       H  0.24454067  0.91887288  0.37820713     0.28400
H1051       H  0.30141696  0.87057944  0.42538955     0.41200
H1052       H  0.35083204  0.94178612  0.45681785     0.31300
H1053       H  0.35237322  0.93665784  0.42282370     0.38900
H1054       H  0.21919528  0.92776270  0.45907259     0.30800
H1055       H  0.32831271  0.95693501  0.50358338     0.30800
H1056       H  0.25847202  0.01141307  0.43614380     0.31100
Zr1057     Zr  0.42057454  0.90053878  0.31288152     2.17500
O1058       O  0.42355690  0.86712076  0.32368233    -0.51300
O1059       O  0.44033386  0.88466386  0.28845815    -0.74500
O1060       O  0.39441796  0.87856097  0.30694632    -0.81300
O1061       O  0.45558773  0.92490050  0.34924516    -0.83000
O1062       O  0.38343767  0.89384861  0.28126506    -0.78600
O1063       O  0.44239490  0.89645571  0.34035795    -0.90300
O1064       O  0.43862238  0.90339473  0.26202226    -0.76200
O1065       O  0.41016252  0.91344491  0.28267144    -0.85700
O1066       O  0.44354123  0.92401970  0.30429214    -0.85400
O1067       O  0.38820339  0.91388719  0.31803610    -0.72200
O1068       O  0.41895064  0.92448587  0.33817365    -0.84300
Zr1069     Zr  0.39895920  0.97601731  0.30664958     2.26400
Zr1070     Zr  0.37895860  0.92816171  0.28795965     2.06300
Zr1071     Zr  0.44116101  0.94875998  0.32885781     2.10000
Zr1072     Zr  0.43256570  0.93693445  0.27450507     1.78800
O1073       O  0.45525809  0.95925625  0.35921920    -0.93100
O1074       O  0.41972038  0.93782984  0.24189424    -0.40900
O1075       O  0.43077431  0.96242840  0.29907895    -0.77500
O1076       O  0.40144169  0.95265596  0.28005567    -0.96200
O1077       O  0.37700624  0.95113856  0.31361460    -0.89500
O1078       O  0.40922277  0.96046458  0.33568699    -0.92400
C1079       C  0.44196673  0.88703497  0.27033225     1.01400
C1080       C  0.45332785  0.90679350  0.35106073     1.14300
C1081       C  0.38132545  0.88118992  0.29422092     1.05100
O1082       O  0.36511292  0.92030209  0.25673731    -0.94500
O1083       O  0.36072386  0.95446552  0.27317364    -0.90300
O1084       O  0.37138173  0.98318368  0.28483273    -0.83400
C1085       C  0.35965353  0.97300356  0.27462461     1.11700
O1086       O  0.38610254  0.91117522  0.36640565    -0.96500
Zr1087     Zr  0.38673761  0.93714390  0.34308860     1.88900
O1088       O  0.37067626  0.98862667  0.32391498    -0.73100
O1089       O  0.34705614  0.92142546  0.30042271    -0.52400
O1090       O  0.35524009  0.92300436  0.34677062    -0.97100
O1091       O  0.39278879  0.94681264  0.37641798    -0.54300
O1092       O  0.36364124  0.96441899  0.34441440    -0.73700
C1093       C  0.35999594  0.98089341  0.33658234     0.98700
O1094       O  0.40924385  0.00542312  0.29124027    -0.62500
O1095       O  0.47304005  0.95141961  0.31469002    -0.57300
O1096       O  0.41349801  0.99628215  0.33285904    -0.94000
O1097       O  0.44350395  0.98351592  0.33400010    -0.92400
O1098       O  0.46763794  0.93712909  0.27327952    -0.92700
O1099       O  0.44597604  0.96050025  0.25286752    -0.91500
C1100       C  0.43025121  0.99470495  0.34104226     1.17500
H1101       H  0.45635600  0.91824212  0.30345369     0.33500
H1102       H  0.39761615  0.95890534  0.26825751     0.44300
H1103       H  0.40895313  0.96783085  0.34744867     0.37800
H1104       H  0.37900666  0.90469573  0.32221205     0.34300
H1105       H  0.42940002  0.93057331  0.23394952     0.26100
H1106       H  0.33960177  0.91738313  0.28898544     0.32100
H1107       H  0.34930009  0.93008833  0.35785166     0.38000
H1108       H  0.47122480  0.92751178  0.26311374     0.32400
H1109       H  0.47581140  0.96536780  0.31566613     0.31300
H1110       H  0.46893168  0.96162792  0.35624668     0.33000
H1111       H  0.38266112  0.95667001  0.37966177     0.31900
H1112       H  0.44804734  0.97204429  0.26111846     0.35900
H1113       H  0.41905088  0.00086782  0.28173733     0.28700
H1114       H  0.43743359  0.86351258  0.32269765     0.32900
H1115       H  0.39981309  0.90761794  0.36874354     0.35800
H1116       H  0.48190072  0.94518978  0.32405549     0.28400
H1117       H  0.39811994  0.00980002  0.28335794     0.41200
H1118       H  0.37480708  0.92431339  0.24726789     0.31300
H1119       H  0.40856031  0.92925986  0.24222392     0.38900
H1120       H  0.40504886  0.95374920  0.37653683     0.30800
H1121       H  0.34854460  0.90957433  0.30811824     0.30800
H1122       H  0.42072435  0.86749629  0.33765534     0.31100
Zr1123     Zr  0.18444796  0.70455055  0.64399541     2.17500
O1124       O  0.18539931  0.71482661  0.61056443    -0.51300
O1125       O  0.19510474  0.73702300  0.64861551    -0.74500
O1126       O  0.15236457  0.71626096  0.63424527    -0.81300
O1127       O  0.21670099  0.66020392  0.63650536    -0.83000
O1128       O  0.13765507  0.72708297  0.66176307    -0.78600
O1129       O  0.20072033  0.68380209  0.62007829    -0.90300
O1130       O  0.22476425  0.73688822  0.65911203    -0.76200
O1131       O  0.18479775  0.72614699  0.67099052    -0.85700
O1132       O  0.21475263  0.69926516  0.66039701    -0.85400
O1133       O  0.15736350  0.69378286  0.66214403    -0.72200
O1134       O  0.18717238  0.67101282  0.65244590    -0.84300
Zr1135     Zr  0.18575257  0.67726083  0.71602665     2.26400
Zr1136     Zr  0.15776234  0.71643245  0.68857538     2.06300
Zr1137     Zr  0.21590879  0.66648129  0.67081131     2.10000
Zr1138     Zr  0.21416506  0.72008252  0.68814906     1.78800
O1139       O  0.22476310  0.63309608  0.66221113    -0.93100
O1140       O  0.21097371  0.75434834  0.69676352    -0.40900
O1141       O  0.21427478  0.68698052  0.69880348    -0.77500
O1142       O  0.18643314  0.71112499  0.70709093    -0.96200
O1143       O  0.15753216  0.68290459  0.69713432    -0.89500
O1144       O  0.18871998  0.65627774  0.68864344    -0.92400
C1145       C  0.21253881  0.74109910  0.64595226     1.01400
C1146       C  0.21071676  0.66791030  0.62080833     1.14300
C1147       C  0.13778412  0.72355879  0.64357497     1.05100
O1148       O  0.16755958  0.74955253  0.69395005    -0.94500
O1149       O  0.14435165  0.71231337  0.71967943    -0.90300
O1150       O  0.16160953  0.69141027  0.73827158    -0.83400
C1151       C  0.14765663  0.70369002  0.73547969     1.11700
O1152       O  0.14914867  0.65461098  0.63769429    -0.96500
Zr1153     Zr  0.16051086  0.66098328  0.67033662     1.88900
O1154       O  0.16449715  0.65018555  0.72383017    -0.73100
O1155       O  0.12821005  0.73253793  0.70052346    -0.52400
O1156       O  0.12578001  0.65755994  0.66795501    -0.97100
O1157       O  0.17217513  0.62851628  0.66136208    -0.54300
O1158       O  0.14886843  0.64264210  0.69611644    -0.73700
C1159       C  0.15212588  0.64057055  0.71397901     0.98700
O1160       O  0.19833198  0.68391806  0.74811932    -0.62500
O1161       O  0.24976954  0.67421955  0.66805301    -0.57300
O1162       O  0.21011400  0.65204442  0.72367535    -0.94000
O1163       O  0.22712854  0.64556678  0.69639758    -0.92400
O1164       O  0.24865188  0.71264910  0.68878530    -0.92700
O1165       O  0.22866441  0.72980938  0.71857942    -0.91500
C1166       C  0.22315696  0.64237464  0.71408464     1.17500
H1167       H  0.22551707  0.70146824  0.65197311     0.33500
H1168       H  0.18574793  0.71912653  0.71859676     0.44300
H1169       H  0.19003509  0.64286134  0.69224664     0.37800
H1170       H  0.14511629  0.69267679  0.65590923     0.34300
H1171       H  0.20382332  0.76037251  0.68596520     0.26100
H1172       H  0.11739724  0.72691368  0.69333489     0.32100
H1173       H  0.12390275  0.64349922  0.66618577     0.38000
H1174       H  0.25418898  0.72072747  0.67864062     0.32400
H1175       H  0.25524560  0.67148715  0.68091115     0.31300
H1176       H  0.23886001  0.63298145  0.66005846     0.33000
H1177       H  0.17994359  0.63022615  0.64958342     0.31900
H1178       H  0.22099923  0.72340055  0.72854041     0.35900
H1179       H  0.19418720  0.67295813  0.75599673     0.28700
H1180       H  0.19895515  0.71799483  0.60796430     0.32900
H1181       H  0.14548394  0.66741268  0.63239365     0.35800
H1182       H  0.25547795  0.66401117  0.65951369     0.28400
H1183       H  0.21248137  0.68208444  0.74697604     0.41200
H1184       H  0.16401968  0.75246894  0.70751002     0.31300
H1185       H  0.20187705  0.75506770  0.70774024     0.38900
H1186       H  0.16059842  0.62172827  0.65689546     0.30800
H1187       H  0.12869461  0.74602136  0.69597430     0.30800
H1188       H  0.17836140  0.72747595  0.61034677     0.31100
Zr1189     Zr  0.20429347  0.55940669  0.55291387     2.17500
O1190       O  0.23725759  0.54962683  0.54461536    -0.51300
O1191       O  0.21023400  0.58937320  0.57002119    -0.74500
O1192       O  0.21500602  0.58661780  0.53308231    -0.81300
O1193       O  0.20265088  0.52219036  0.59312257    -0.83000
O1194       O  0.18891152  0.59603233  0.51548754    -0.78600
O1195       O  0.22002496  0.54756766  0.58298065    -0.90300
O1196       O  0.18076155  0.60072049  0.57993533    -0.76200
O1197       O  0.17749628  0.58122079  0.54946653    -0.85700
O1198       O  0.18239162  0.55419962  0.57868190    -0.85400
O1199       O  0.19009776  0.55169719  0.52181842    -0.72200
O1200       O  0.19431409  0.52644893  0.54775650    -0.84300
Zr1201     Zr  0.13183257  0.53708512  0.54370677     2.26400
Zr1202     Zr  0.16322406  0.57391971  0.51944398     2.06300
Zr1203     Zr  0.17361968  0.52130042  0.57461002     2.10000
Zr1204     Zr  0.15638339  0.57664353  0.57555225     1.78800
O1205       O  0.19047035  0.48991611  0.57469338    -0.93100
O1206       O  0.13821774  0.60662950  0.56955910    -0.40900
O1207       O  0.14671717  0.54367524  0.57393612    -0.77500
O1208       O  0.14117638  0.57007714  0.54561250    -0.96200
O1209       O  0.15144483  0.54223751  0.51621236    -0.89500
O1210       O  0.15808812  0.51433051  0.54497547    -0.92400
C1211       C  0.19894584  0.60248813  0.57735112     1.01400
C1212       C  0.21646156  0.53388571  0.59492519     1.14300
C1213       C  0.20623797  0.59817444  0.52126659     1.05100
O1214       O  0.15098596  0.60713833  0.51644171    -0.94500
O1215       O  0.13240768  0.57469357  0.50400370    -0.90300
O1216       O  0.11278070  0.55419926  0.51924243    -0.83400
C1217       C  0.11602418  0.56715982  0.50655206     1.11700
O1218       O  0.20741830  0.50360002  0.50774825    -0.96500
Zr1219     Zr  0.17733903  0.51968488  0.51776975     1.88900
O1220       O  0.12478592  0.51029084  0.52358272    -0.73100
O1221       O  0.17183057  0.57066522  0.48561107    -0.52400
O1222       O  0.18653024  0.52626574  0.48472734    -0.97100
O1223       O  0.17876953  0.48446345  0.51989360    -0.54300
O1224       O  0.14685012  0.51200895  0.49996560    -0.73700
C1225       C  0.12972846  0.50824929  0.50609444     0.98700
O1226       O  0.09978644  0.54320264  0.55716707    -0.62500
O1227       O  0.16363045  0.52027144  0.60819723    -0.57300
O1228       O  0.12209726  0.51053444  0.56391658    -0.94000
O1229       O  0.14861753  0.49847706  0.57901563    -0.92400
O1230       O  0.16154371  0.57896221  0.61016521    -0.92700
O1231       O  0.12599448  0.57854129  0.59305224    -0.91500
C1232       C  0.13079744  0.49788412  0.57449773     1.17500
H1233       H  0.18756410  0.55680575  0.59128325     0.33500
H1234       H  0.13000213  0.57857792  0.54417348     0.44300
H1235       H  0.15385564  0.50117591  0.54432895     0.37800
H1236       H  0.19926705  0.55404191  0.51171114     0.34300
H1237       H  0.14286401  0.61588652  0.57939094     0.26100
H1238       H  0.16370783  0.56018035  0.48063468     0.32100
H1239       H  0.17676770  0.51985837  0.47666616     0.38000
H1240       H  0.15910118  0.56584428  0.61496517     0.32400
H1241       H  0.17053044  0.53088793  0.61464178     0.31300
H1242       H  0.20063474  0.49083560  0.56477846     0.33000
H1243       H  0.16532244  0.48035226  0.51822481     0.31900
H1244       H  0.11606858  0.57583467  0.58322264     0.35900
H1245       H  0.09566131  0.55618873  0.55264564     0.28700
H1246       H  0.24534321  0.55810058  0.55265916     0.32900
H1247       H  0.21750955  0.51063619  0.51479578     0.35800
H1248       H  0.16986653  0.50830447  0.61319958     0.28400
H1249       H  0.09142731  0.53411864  0.55018198     0.41200
H1250       H  0.13788112  0.60735596  0.52207557     0.31300
H1251       H  0.14340291  0.61131067  0.55726822     0.38900
H1252       H  0.18188837  0.48172377  0.53350564     0.30800
H1253       H  0.16627080  0.58253775  0.47978457     0.30800
H1254       H  0.23905546  0.55425660  0.53133416     0.31100
Zr1255     Zr  0.04379634  0.70390813  0.55913452     2.17500
O1256       O  0.03280930  0.73698737  0.55298775    -0.51300
O1257       O  0.06629127  0.71079682  0.58437922    -0.74500
O1258       O  0.02761956  0.71530635  0.58930851    -0.81300
O1259       O  0.08497899  0.69724952  0.52159244    -0.83000
O1260       O  0.00930930  0.69055908  0.59885478    -0.78600
O1261       O  0.07313217  0.71780746  0.54500582    -0.90300
O1262       O  0.07569481  0.68180401  0.59670091    -0.76200
O1263       O  0.03698717  0.67922456  0.58164482    -0.85700
O1264       O  0.06898102  0.67973815  0.55413334    -0.85400
O1265       O  0.01220489  0.69211945  0.55113989    -0.72200
O1266       O  0.04014947  0.69453418  0.52548292    -0.84300
Zr1267     Zr  0.02743510  0.63365725  0.53737201     2.26400
Zr1268     Zr  0.00608207  0.66670051  0.57350284     2.06300
Zr1269     Zr  0.06460555  0.66973466  0.52123825     2.10000
Zr1270     Zr  0.06180846  0.65602688  0.57708963     1.78800
O1271       O  0.06581572  0.68521636  0.49003283    -0.93100
O1272       O  0.05377879  0.64806758  0.61010708    -0.40900
O1273       O  0.04603007  0.65962466  0.54710589    -0.77500
O1274       O  0.03124383  0.64176697  0.57081446    -0.96200
O1275       O  0.00159459  0.65615404  0.54092387    -0.89500
O1276       O  0.03435424  0.65659640  0.51327366    -0.92400
C1277       C  0.07579710  0.70044573  0.59637762     1.01400
C1278       C  0.08579127  0.71253757  0.53212714     1.14300
C1279       C  0.01681298  0.70706350  0.60178447     1.05100
O1280       O  0.98919687  0.66104178  0.60356427    -0.94500
O1281       O  0.99586669  0.63361243  0.57829246    -0.90300
O1282       O  0.99736896  0.62165967  0.54836060    -0.83400
C1283       C  0.99389724  0.61965260  0.56615569     1.11700
O1284       O  0.99530928  0.71250905  0.51227370    -0.96500
Zr1285     Zr  0.00928688  0.68041515  0.51819172     1.88900
O1286       O  0.00767757  0.62588434  0.51085122    -0.73100
O1287       O  0.97408189  0.67940047  0.56532943    -0.52400
O1288       O  0.97435124  0.68442318  0.51973982    -0.97100
O1289       O  0.01844913  0.69068011  0.48612342    -0.54300
O1290       O  0.99842247  0.65402354  0.49652429    -0.73700
C1291       C  0.99962349  0.63537215  0.49735925     0.98700
O1292       O  0.04216167  0.60320696  0.54817733    -0.62500
O1293       O  0.09473832  0.65170863  0.52673653    -0.57300
O1294       O  0.04901459  0.61785867  0.51518018    -0.94000
O1295       O  0.07007760  0.63904157  0.50350767    -0.92400
O1296       O  0.09541550  0.64689846  0.57103636    -0.92700
O1297       O  0.07290251  0.62236440  0.57493582    -0.91500
C1298       C  0.06283822  0.62212148  0.50410824     1.17500
H1299       H  0.08174215  0.68426053  0.55665434     0.33500
H1300       H  0.02982301  0.63093068  0.57929415     0.44300
H1301       H  0.03450318  0.65144300  0.50029117     0.37800
H1302       H  0.00284809  0.70255011  0.55323799     0.34300
H1303       H  0.06618987  0.64835180  0.61709662     0.26100
H1304       H  0.96547028  0.66836844  0.56694449     0.32100
H1305       H  0.96949539  0.67110929  0.51896450     0.38000
H1306       H  0.10284781  0.65620014  0.57879470     0.32400
H1307       H  0.10230665  0.65334528  0.51481086     0.31300
H1308       H  0.07788343  0.68001517  0.48408267     0.33000
H1309       H  0.02531663  0.70289378  0.48817099     0.31900
H1310       H  0.07217947  0.61759813  0.58828310     0.35900
H1311       H  0.05626718  0.60469803  0.54738142     0.28700
H1312       H  0.03831908  0.73995693  0.54025842     0.32900
H1313       H  0.00469369  0.72150591  0.51789087     0.35800
H1314       H  0.10156877  0.65956877  0.53643124     0.28400
H1315       H  0.03949867  0.60280219  0.56214188     0.41200
H1316       H  0.97555446  0.65933324  0.59996503     0.31300
H1317       H  0.04626685  0.65946298  0.61506482     0.38900
H1318       H  0.00621215  0.69460126  0.47977560     0.30800
H1319       H  0.97059790  0.68849443  0.57597909     0.30800
H1320       H  0.04013909  0.74494783  0.56222916     0.31100
Zr1321     Zr  0.06456551  0.54979761  0.70047704     2.17500
O1322       O  0.04972062  0.54241046  0.73117342    -0.51300
O1323       O  0.08858209  0.57275182  0.71233400    -0.74500
O1324       O  0.08812661  0.53027262  0.71924921    -0.81300
O1325       O  0.02971647  0.58964766  0.68525586    -0.83000
O1326       O  0.09932477  0.50612075  0.69943860    -0.78600
O1327       O  0.04314781  0.57647439  0.71192604    -0.90300
O1328       O  0.10951852  0.57755943  0.68774115    -0.76200
O1329       O  0.09148425  0.53770257  0.68260156    -0.85700
O1330       O  0.07133330  0.57325127  0.67671227    -0.85400
O1331       O  0.05477613  0.51899008  0.68680561    -0.72200
O1332       O  0.03632202  0.55068664  0.67990023    -0.84300
Zr1333     Zr  0.06296144  0.53372070  0.62519158     2.26400
Zr1334     Zr  0.08254591  0.50743873  0.66921145     2.06300
Zr1335     Zr  0.04378108  0.57470839  0.65662019     2.10000
Zr1336     Zr  0.09881557  0.56091217  0.65928611     1.78800
O1337       O  0.01678738  0.59784461  0.65454245    -0.93100
O1338       O  0.13054225  0.54727372  0.66729793    -0.40900
O1339       O  0.07145087  0.56433221  0.63860629    -0.77500
O1340       O  0.09087950  0.53041145  0.64523622    -0.96200
O1341       O  0.05599958  0.50977124  0.64807950    -0.89500
O1342       O  0.03490970  0.54467437  0.64262900    -0.92400
C1343       C  0.10369797  0.58027499  0.70505277     1.01400
C1344       C  0.03179561  0.58883398  0.70356428     1.14300
C1345       C  0.09950442  0.51561423  0.71539162     1.05100
O1346       O  0.11445188  0.49205170  0.66719245    -0.94500
O1347       O  0.08656596  0.48607906  0.64143936    -0.90300
O1348       O  0.07910637  0.50377275  0.61491193    -0.83400
C1349       C  0.08523074  0.48819313  0.62316885     1.11700
O1350       O  0.00779709  0.51044601  0.69097044    -0.96500
Zr1351     Zr  0.02786688  0.52030239  0.66430564     1.88900
O1352       O  0.04437247  0.50637115  0.61688429    -0.73100
O1353       O  0.06892727  0.47834059  0.68236041    -0.52400
O1354       O  0.02697989  0.48518768  0.66658998    -0.97100
O1355       O  0.99493578  0.53344292  0.66419616    -0.54300
O1356       O  0.01602219  0.51212364  0.63060352    -0.73700
C1357       C  0.02624565  0.50747573  0.61550793     0.98700
O1358       O  0.08309027  0.54491335  0.59904284    -0.62500
O1359       O  0.06186743  0.60346130  0.64965967    -0.57300
O1360       O  0.03945714  0.55156265  0.60500529    -0.94000
O1361       O  0.03000091  0.57677964  0.62454484    -0.92400
O1362       O  0.10399069  0.59325879  0.64718442    -0.92700
O1363       O  0.12103971  0.56220331  0.63220436    -0.91500
C1364       C  0.02895451  0.56688969  0.60877701     1.17500
H1365       H  0.07322091  0.58597723  0.68216168     0.33500
H1366       H  0.10167348  0.52531818  0.63779120     0.44300
H1367       H  0.02304391  0.54576301  0.63554605     0.37800
H1368       H  0.05195128  0.51030222  0.69713070     0.34300
H1369       H  0.13878844  0.55857616  0.66930967     0.26100
H1370       H  0.07808451  0.46778216  0.67840399     0.32100
H1371       H  0.03483607  0.48007527  0.65566189     0.38000
H1372       H  0.10096090  0.60207413  0.65819201     0.32400
H1373       H  0.05819850  0.61283258  0.66002432     0.31300
H1374       H  0.02142274  0.60861065  0.64669643     0.33000
H1375       H  0.99190037  0.53589780  0.65051205     0.31900
H1376       H  0.12528712  0.54865203  0.62946418     0.35900
H1377       H  0.09638803  0.54415971  0.60416318     0.28700
H1378       H  0.05896178  0.54687296  0.74101850     0.32900
H1379       H  0.01522168  0.51379241  0.70265432     0.35800
H1380       H  0.05587203  0.60884541  0.63789258     0.28400
H1381       H  0.08001446  0.55894873  0.59820744     0.41200
H1382       H  0.12317983  0.50281811  0.66471589     0.31300
H1383       H  0.12912878  0.54169077  0.68024694     0.38900
H1384       H  0.99585932  0.54649662  0.67011191     0.30800
H1385       H  0.07066030  0.47955063  0.69645932     0.30800
H1386       H  0.05040520  0.52811358  0.73188086     0.31100
Zr1387     Zr  0.21149261  0.72411511  0.52330533     2.17500
O1388       O  0.20514088  0.70007203  0.54771916    -0.51300
O1389       O  0.17605380  0.72749576  0.52431411    -0.74500
O1390       O  0.21508760  0.73636931  0.55629654    -0.81300
O1391       O  0.22280450  0.68366046  0.48653703    -0.83000
O1392       O  0.22695527  0.76670421  0.55615276    -0.78600
O1393       O  0.21426746  0.68919136  0.51771529    -0.90300
O1394       O  0.16609675  0.75133861  0.50446035    -0.76200
O1395       O  0.20428646  0.75750208  0.51822213    -0.85700
O1396       O  0.20003707  0.72605694  0.49095724    -0.85400
O1397       O  0.24155536  0.74006915  0.52825726    -0.72200
O1398       O  0.23747926  0.71238206  0.50318576    -0.84300
Zr1399     Zr  0.24888520  0.76522548  0.47018586     2.26400
Zr1400     Zr  0.23411921  0.77357393  0.52273084     2.06300
Zr1401     Zr  0.22627757  0.71479086  0.47094150     2.10000
Zr1402     Zr  0.19367856  0.75965606  0.48564160     1.78800
O1403       O  0.24520123  0.68833118  0.45616447    -0.93100
O1404       O  0.17819918  0.79025236  0.49566057    -0.40900
O1405       O  0.21938430  0.74839038  0.46500761    -0.77500
O1406       O  0.22258564  0.77675625  0.49030072    -0.96200
O1407       O  0.26032216  0.76250380  0.50244157    -0.89500
O1408       O  0.25564453  0.73156594  0.47507504    -0.92400
C1409       C  0.16274076  0.73849978  0.51696102     1.01400
C1410       C  0.21852049  0.67780391  0.50346770     1.14300
C1411       C  0.22073595  0.75182741  0.56478104     1.05100
O1412       O  0.21174165  0.79890773  0.53435158    -0.94500
O1413       O  0.24422339  0.80445335  0.51081254    -0.90300
O1414       O  0.25040870  0.80040487  0.47881406    -0.83400
C1415       C  0.24830079  0.81109452  0.49420530     1.11700
O1416       O  0.27563216  0.70826518  0.53428744    -0.96500
Zr1417     Zr  0.26685393  0.72888552  0.50727529     1.88900
O1418       O  0.28417885  0.76131819  0.46891889    -0.73100
O1419       O  0.26076529  0.78258743  0.54345924    -0.52400
O1420       O  0.28951713  0.74544069  0.52808612    -0.97100
O1421       O  0.28012417  0.69702050  0.49817406    -0.54300
O1422       O  0.29346030  0.73533962  0.48644618    -0.73700
C1423       C  0.29694165  0.74867939  0.47450121     0.98700
O1424       O  0.25045007  0.78608484  0.44230828    -0.62500
O1425       O  0.19750111  0.70531895  0.45357731    -0.57300
O1426       O  0.24720492  0.75144952  0.43714557    -0.94000
O1427       O  0.23529233  0.72107385  0.43792272    -0.92400
O1428       O  0.17368466  0.74554973  0.46062224    -0.92700
O1429       O  0.18533756  0.78267386  0.46056467    -0.91500
C1430       C  0.24220928  0.73542891  0.42900125     1.17500
H1431       H  0.18879484  0.71835127  0.48904053     0.33500
H1432       H  0.21886936  0.78999650  0.48763750     0.44300
H1433       H  0.26498751  0.72648130  0.46587850     0.37800
H1434       H  0.24658522  0.73808171  0.54103226     0.34300
H1435       H  0.16421305  0.78832416  0.49403657     0.26100
H1436       H  0.27158326  0.78480533  0.53454990     0.32100
H1437       H  0.28283776  0.74695418  0.54063077     0.38000
H1438       H  0.16659453  0.73522425  0.46703968     0.32400
H1439       H  0.19529030  0.71568599  0.44407596     0.31300
H1440       H  0.23619739  0.68179393  0.44733425     0.33000
H1441       H  0.28058012  0.69706711  0.48393437     0.31900
H1442       H  0.19773001  0.78511949  0.45410641     0.35900
H1443       H  0.23893012  0.79482225  0.44318059     0.28700
H1444       H  0.19481255  0.70591362  0.55590137     0.32900
H1445       H  0.28989635  0.70787701  0.53462710     0.35800
H1446       H  0.20173475  0.69393195  0.44571376     0.28400
H1447       H  0.26155443  0.79447763  0.44462309     0.41200
H1448       H  0.20885608  0.80706175  0.52305189     0.31300
H1449       H  0.18007768  0.79085981  0.50976957     0.38900
H1450       H  0.26983673  0.68790601  0.50120588     0.30800
H1451       H  0.25703106  0.79562267  0.54850878     0.30800
H1452       H  0.21668723  0.69952322  0.55608557     0.31100
Zr1453     Zr  0.22082956  0.52124035  0.72272982     2.17500
O1454       O  0.19449411  0.54395504  0.71494611    -0.51300
O1455       O  0.22299787  0.52257656  0.68693669    -0.74500
O1456       O  0.23039313  0.55475246  0.72518161    -0.81300
O1457       O  0.18432852  0.48375998  0.74050548    -0.83000
O1458       O  0.26225616  0.55598149  0.73262801    -0.78600
O1459       O  0.18677952  0.51402565  0.72872364    -0.90300
O1460       O  0.24684699  0.50188457  0.67716754    -0.76200
O1461       O  0.25327523  0.51561101  0.71256873    -0.85700
O1462       O  0.22295883  0.48802450  0.71344836    -0.85400
O1463       O  0.24047248  0.52829081  0.75066818    -0.72200
O1464       O  0.21390983  0.50350802  0.75135602    -0.84300
Zr1465     Zr  0.26928282  0.47121640  0.75942761     2.26400
Zr1466     Zr  0.27309789  0.52269658  0.73989775     2.06300
Zr1467     Zr  0.21678960  0.47020239  0.74210869     2.10000
Zr1468     Zr  0.25558069  0.48214566  0.70402649     1.78800
O1469       O  0.19657862  0.45558884  0.76621988    -0.93100
O1470       O  0.28469111  0.48822330  0.68564953    -0.40900
O1471       O  0.24933206  0.46397337  0.73219873    -0.77500
O1472       O  0.27602878  0.48907072  0.73052257    -0.96200
O1473       O  0.26669839  0.50458253  0.76840166    -0.89500
O1474       O  0.23679605  0.47630578  0.76973091    -0.92400
C1475       C  0.23412277  0.51502614  0.67371807     1.01400
C1476       C  0.17685966  0.49996667  0.73512097     1.14300
C1477       C  0.24580594  0.56402632  0.72856954     1.05100
O1478       O  0.29437648  0.53465442  0.71515983    -0.94500
O1479       O  0.30586140  0.50937684  0.74441373    -0.90300
O1480       O  0.30323708  0.47855301  0.75486298    -0.83400
C1481       C  0.31324953  0.49284088  0.74927823     1.11700
O1482       O  0.21190141  0.53567587  0.78893858    -0.96500
Zr1483     Zr  0.23416326  0.50962476  0.77859351     1.88900
O1484       O  0.27077989  0.47293071  0.79510632    -0.73100
O1485       O  0.28606062  0.54430825  0.76432573    -0.52400
O1486       O  0.24923544  0.53566129  0.79656650    -0.97100
O1487       O  0.20732771  0.49571027  0.79570627    -0.54300
O1488       O  0.24994486  0.49608307  0.80663132    -0.73700
C1489       C  0.26305668  0.48294659  0.80908126     0.98700
O1490       O  0.29343761  0.44698330  0.76937650    -0.62500
O1491       O  0.20309541  0.45093428  0.71610396    -0.57300
O1492       O  0.25921565  0.43761081  0.75335434    -0.94000
O1493       O  0.22742547  0.43707783  0.74573786    -0.92400
O1494       O  0.23712900  0.45862280  0.68587714    -0.92700
O1495       O  0.27462653  0.45356098  0.69432947    -0.91500
C1496       C  0.24367261  0.42863874  0.74910291     1.17500
H1497       H  0.21393510  0.48534733  0.70325220     0.33500
H1498       H  0.28839724  0.48570145  0.72495322     0.44300
H1499       H  0.23367808  0.46798159  0.78027575     0.37800
H1500       H  0.23838977  0.54132569  0.75545084     0.34300
H1501       H  0.28173476  0.48427584  0.67224109     0.26100
H1502       H  0.29518226  0.53612159  0.77181089     0.32100
H1503       H  0.25349331  0.54484344  0.78674075     0.38000
H1504       H  0.22899948  0.46636528  0.67697799     0.32400
H1505       H  0.19646028  0.44036291  0.72262669     0.31300
H1506       H  0.19178422  0.46650440  0.77442847     0.33000
H1507       H  0.19556568  0.50156232  0.78987618     0.31900
H1508       H  0.28561173  0.45328708  0.70340824     0.35900
H1509       H  0.28704474  0.43912353  0.77918477     0.28700
H1510       H  0.19909901  0.55156102  0.70398719     0.32900
H1511       H  0.21195024  0.53551896  0.80318919     0.35800
H1512       H  0.19255469  0.45912025  0.71070039     0.28400
H1513       H  0.29543329  0.43811491  0.75820116     0.41200
H1514       H  0.28586361  0.53728979  0.70401626     0.31300
H1515       H  0.28536813  0.50249783  0.68524722     0.38900
H1516       H  0.20778989  0.50136276  0.80885071     0.30800
H1517       H  0.29433880  0.55311075  0.75710992     0.30800
H1518       H  0.19361547  0.55329527  0.72587102     0.31100
Zr1519     Zr  0.55509477  0.52251781  0.18268998     2.17500
O1520       O  0.54685071  0.49048898  0.19373438    -0.51300
O1521       O  0.58262875  0.51458315  0.16121997    -0.74500
O1522       O  0.54047757  0.50325021  0.15676162    -0.81300
O1523       O  0.58736276  0.53719624  0.22459498    -0.83000
O1524       O  0.51713435  0.52362925  0.14549758    -0.78600
O1525       O  0.58017236  0.51150249  0.20545384    -0.90300
O1526       O  0.59194119  0.54318825  0.14894207    -0.76200
O1527       O  0.54872399  0.54391035  0.15654600    -0.85700
O1528       O  0.57639625  0.54869294  0.18673112    -0.85400
O1529       O  0.52166017  0.53332591  0.18602243    -0.72200
O1530       O  0.54683980  0.53786941  0.21325279    -0.84300
Zr1531     Zr  0.52959624  0.59619332  0.19116117     2.26400
Zr1532     Zr  0.51577780  0.55511451  0.16006587     2.06300
Zr1533     Zr  0.56768612  0.56473133  0.21618984     2.10000
Zr1534     Zr  0.57111132  0.56919256  0.16030295     1.78800
O1535       O  0.56326399  0.56060509  0.25065620    -0.93100
O1536       O  0.56869092  0.56902257  0.12528961    -0.40900
O1537       O  0.56305916  0.58611416  0.18965370    -0.77500
O1538       O  0.53879012  0.58024445  0.16141446    -0.96200
O1539       O  0.50747798  0.57056625  0.18960015    -0.89500
O1540       O  0.53530811  0.57619509  0.21852323    -0.92400
C1541       C  0.59363045  0.52485993  0.15074033     1.01400
C1542       C  0.58993351  0.51960875  0.21902049     1.14300
C1543       C  0.52625761  0.50736005  0.14548978     1.05100
O1544       O  0.50011994  0.55128404  0.12880817    -0.94500
O1545       O  0.50503071  0.58466293  0.14407161    -0.90300
O1546       O  0.51590154  0.60992882  0.16185910    -0.83400
C1547       C  0.50797776  0.60277178  0.14669471     1.11700
O1548       O  0.50126277  0.51838624  0.22431355    -0.96500
Zr1549     Zr  0.51398291  0.54970665  0.21614467     1.88900
O1550       O  0.49837203  0.59291657  0.20573771    -0.73100
O1551       O  0.48246955  0.55144388  0.16996452    -0.52400
O1552       O  0.47935804  0.54679591  0.21188523    -0.97100
O1553       O  0.52045019  0.54242406  0.24978002    -0.54300
O1554       O  0.50025839  0.57786008  0.23330946    -0.73700
C1555       C  0.49601406  0.59306123  0.22385097     0.98700
O1556       O  0.51983334  0.63030679  0.19073845    -0.62500
O1557       O  0.60147188  0.57328372  0.21824226    -0.57300
O1558       O  0.54883324  0.61600783  0.21289145    -0.94000
O1559       O  0.57042692  0.59710317  0.22898716    -0.92400
O1560       O  0.60311055  0.58125279  0.16683054    -0.92700
O1561       O  0.57624075  0.60080223  0.14642131    -0.91500
C1562       C  0.56267419  0.61358780  0.22504020     1.17500
H1563       H  0.58970655  0.54425876  0.18710953     0.33500
H1564       H  0.53917458  0.58803927  0.15007681     0.44300
H1565       H  0.53398252  0.58344267  0.23044306     0.37800
H1566       H  0.51344196  0.52236033  0.18456644     0.34300
H1567       H  0.58211169  0.57006528  0.12066763     0.26100
H1568       H  0.47595586  0.56393497  0.16681021     0.32100
H1569       H  0.47349211  0.55259435  0.22368689     0.38000
H1570       H  0.60885574  0.57216699  0.17625190     0.32400
H1571       H  0.60237398  0.58564055  0.21130312     0.31300
H1572       H  0.56647921  0.57314405  0.25670717     0.33000
H1573       H  0.50761270  0.54045122  0.25552372     0.31900
H1574       H  0.57205808  0.61019206  0.15658383     0.35900
H1575       H  0.51561944  0.63346967  0.20404651     0.28700
H1576       H  0.53295929  0.48935249  0.19084836     0.32900
H1577       H  0.51071638  0.50880646  0.21887462     0.35800
H1578       H  0.60360580  0.57673736  0.23193932     0.28400
H1579       H  0.53171962  0.63757294  0.18866933     0.41200
H1580       H  0.50995297  0.54588824  0.11975186     0.31300
H1581       H  0.56516050  0.55566279  0.12174528     0.38900
H1582       H  0.52458729  0.55481013  0.25552317     0.30800
H1583       H  0.47720480  0.54212186  0.16054992     0.30800
H1584       H  0.54735711  0.49150150  0.20795205     0.31100
Zr1585     Zr  0.67446997  0.53239495  0.05510283     2.17500
O1586       O  0.68040945  0.50212408  0.03747102    -0.51300
O1587       O  0.65678823  0.52110043  0.08283598    -0.74500
O1588       O  0.69520306  0.51378576  0.07712706    -0.81300
O1589       O  0.62791006  0.54778367  0.02883749    -0.83000
O1590       O  0.71648609  0.53565378  0.08811974    -0.78600
O1591       O  0.64241835  0.52213722  0.04388427    -0.90300
O1592       O  0.65149846  0.54772288  0.10188296    -0.76200
O1593       O  0.68543556  0.55268426  0.08058255    -0.85700
O1594       O  0.65097611  0.55771998  0.05974635    -0.85400
O1595       O  0.70540891  0.54458900  0.04502818    -0.72200
O1596       O  0.67373683  0.54935080  0.02491312    -0.84300
Zr1597     Zr  0.68812994  0.60663330  0.04722803     2.26400
Zr1598     Zr  0.71536850  0.56543139  0.07076100     2.06300
Zr1599     Zr  0.64946845  0.57428466  0.02985010     2.10000
Zr1600     Zr  0.66130948  0.57687516  0.08596286     1.78800
O1601       O  0.64311601  0.56626151  0.99624582    -0.93100
O1602       O  0.65380135  0.60794578  0.10168611    -0.40900
O1603       O  0.65786175  0.59453913  0.05659895    -0.77500
O1604       O  0.69122615  0.59016178  0.07707850    -0.96200
O1605       O  0.71361661  0.58342841  0.04201772    -0.89500
O1606       O  0.67931449  0.58710065  0.02052759    -0.92400
C1607       C  0.65054435  0.52950552  0.09830972     1.01400
C1608       C  0.62802039  0.53055793  0.03528255     1.14300
C1609       C  0.70886144  0.51901669  0.08842492     1.05100
O1610       O  0.73239397  0.56625109  0.10136342    -0.94500
O1611       O  0.73187090  0.59509661  0.07862276    -0.90300
O1612       O  0.71599259  0.61919547  0.06291922    -0.83400
C1613       C  0.72940518  0.61293194  0.07405833     1.11700
O1614       O  0.71446882  0.53335982  0.00008505    -0.96500
Zr1615     Zr  0.70407672  0.56345980  0.01600947     1.88900
O1616       O  0.70711050  0.61832676  0.02206405    -0.73100
O1617       O  0.74612956  0.55441161  0.05716996    -0.52400
O1618       O  0.73897981  0.55915290  0.01426858    -0.97100
O1619       O  0.69262637  0.56125255  0.98292740    -0.54300
O1620       O  0.71550354  0.59366633  0.00139525    -0.73700
C1621       C  0.71503866  0.61163714  0.00678811     0.98700
O1622       O  0.67981365  0.63781860  0.06233235    -0.62500
O1623       O  0.61726563  0.58770126  0.03651754    -0.57300
O1624       O  0.66661708  0.62555967  0.02694581    -0.94000
O1625       O  0.64456975  0.60536865  0.01483858    -0.92400
O1626       O  0.67554373  0.57831731  0.11796512    -0.92700
O1627       O  0.62674223  0.58165726  0.09083776    -0.91500
C1628       C  0.65241192  0.62190532  0.01579722     1.17500
H1629       H  0.63859700  0.55298052  0.06338989     0.33500
H1630       H  0.69524209  0.59881600  0.08724235     0.44300
H1631       H  0.67816603  0.59426257  0.00874654     0.37800
H1632       H  0.71459864  0.53392367  0.04344027     0.34300
H1633       H  0.64632646  0.61541399  0.09203139     0.26100
H1634       H  0.75202881  0.56637767  0.05258979     0.32100
H1635       H  0.74408902  0.57209935  0.01713685     0.38000
H1636       H  0.66465210  0.57645876  0.12689122     0.32400
H1637       H  0.61222245  0.57953863  0.04686527     0.31300
H1638       H  0.64606507  0.55220393  0.99499390     0.33000
H1639       H  0.68804401  0.57451724  0.97974152     0.31900
H1640       H  0.62445139  0.57763290  0.10424767     0.35900
H1641       H  0.68258216  0.63607916  0.07618922     0.28700
H1642       H  0.68098370  0.49207205  0.04748097     0.32900
H1643       H  0.70529966  0.52370988  0.00462301     0.35800
H1644       H  0.61934188  0.60035350  0.04292740     0.28400
H1645       H  0.68973372  0.64674124  0.05787992     0.41200
H1646       H  0.72255478  0.57088047  0.11080387     0.31300
H1647       H  0.66624034  0.61455309  0.10252855     0.38900
H1648       H  0.68075359  0.55371597  0.98368308     0.30800
H1649       H  0.75398690  0.55070633  0.06848231     0.30800
H1650       H  0.69383816  0.50289011  0.03281664     0.31100
Zr1651     Zr  0.52126826  0.69514885  0.05834430     2.17500
O1652       O  0.48872833  0.70613179  0.04988588    -0.51300
O1653       O  0.51407656  0.67046625  0.08149227    -0.74500
O1654       O  0.50766260  0.66576989  0.04262532    -0.81300
O1655       O  0.53121461  0.73317899  0.09812757    -0.83000
O1656       O  0.53029433  0.65472412  0.02125733    -0.78600
O1657       O  0.50928100  0.71098415  0.08885662    -0.90300
O1658       O  0.54291626  0.65612787  0.08915877    -0.76200
O1659       O  0.54514536  0.67066435  0.05155837    -0.85700
O1660       O  0.54649225  0.69862427  0.08123095    -0.85400
O1661       O  0.53308503  0.70118998  0.02599506    -0.72200
O1662       O  0.53394361  0.72700225  0.05271029    -0.84300
Zr1663     Zr  0.59389194  0.70928640  0.04131637     2.26400
Zr1664     Zr  0.55700113  0.67612988  0.02000836     2.06300
Zr1665     Zr  0.55828066  0.73041100  0.07678715     2.10000
Zr1666     Zr  0.56932655  0.67317522  0.07529152     1.78800
O1667       O  0.54508103  0.76337702  0.07588797    -0.93100
O1668       O  0.57565370  0.63935993  0.06629842    -0.40900
O1669       O  0.58209449  0.70490370  0.07307520    -0.77500
O1670       O  0.58187325  0.67745900  0.04383987    -0.96200
O1671       O  0.57112523  0.70667307  0.01602366    -0.89500
O1672       O  0.57125659  0.73529542  0.04576979    -0.92400
C1673       C  0.52449399  0.65763339  0.09006674     1.01400
C1674       C  0.51582369  0.72385389  0.10074258     1.14300
C1675       C  0.51415016  0.65324089  0.02996208     1.05100
O1676       O  0.56488610  0.64245895  0.01174074    -0.94500
O1677       O  0.58720020  0.67090235  0.00290391    -0.90300
O1678       O  0.60850296  0.69229810  0.01455941    -0.83400
C1679       C  0.60393441  0.67835074  0.00333974     1.11700
O1680       O  0.51708538  0.74390141  0.00953267    -0.96500
Zr1681     Zr  0.54825157  0.73206202  0.02119121     1.88900
O1682       O  0.60421364  0.73286092  0.01986649    -0.73100
O1683       O  0.54464790  0.68192613  0.98774530    -0.52400
O1684       O  0.54408400  0.72571939  0.98690046    -0.97100
O1685       O  0.54132608  0.76649738  0.02634664    -0.54300
O1686       O  0.57750043  0.74763542  0.00718317    -0.73700
C1687       C  0.59605959  0.74530512  0.00910879     0.98700
O1688       O  0.62620761  0.69825549  0.05059630    -0.62500
O1689       O  0.56934895  0.73238262  0.11003896    -0.57300
O1690       O  0.60967060  0.73361859  0.06014142    -0.94000
O1691       O  0.58739218  0.74891983  0.07913575    -0.92400
O1692       O  0.57378670  0.67195306  0.10999620    -0.92700
O1693       O  0.60261999  0.66599428  0.08449308    -0.91500
C1694       C  0.60455493  0.74677680  0.07243466     1.17500
H1695       H  0.54206894  0.69691119  0.09421636     0.33500
H1696       H  0.59196685  0.66788003  0.04121155     0.44300
H1697       H  0.57697305  0.74781298  0.04486842     0.37800
H1698       H  0.52254049  0.69994872  0.01704518     0.34300
H1699       H  0.58887027  0.63880967  0.06093666     0.26100
H1700       H  0.54857703  0.67021312  0.98020937     0.32100
H1701       H  0.55688436  0.72093916  0.98231808     0.38000
H1702       H  0.57524847  0.65800099  0.11288885     0.32400
H1703       H  0.56953284  0.74638438  0.11320126     0.31300
H1704       H  0.55113695  0.77002473  0.08694424     0.33000
H1705       H  0.54855733  0.77299957  0.01612510     0.31900
H1706       H  0.60934397  0.67832105  0.08301937     0.35900
H1707       H  0.63500637  0.70539980  0.04222223     0.28700
H1708       H  0.48426524  0.71443024  0.06082044     0.32900
H1709       H  0.50765613  0.73524906  0.01537882     0.35800
H1710       H  0.58307003  0.72806369  0.10976179     0.28400
H1711       H  0.62744987  0.68463573  0.04605960     0.41200
H1712       H  0.56032695  0.64071116  0.99834550     0.31300
H1713       H  0.56724220  0.63706215  0.05504366     0.38900
H1714       H  0.54816454  0.76986045  0.03836687     0.30800
H1715       H  0.53048610  0.68125367  0.98889886     0.30800
H1716       H  0.48088188  0.69443915  0.05072389     0.31100
Zr1717     Zr  0.66109131  0.68494970  0.21013001     2.17500
O1718       O  0.67378781  0.69497151  0.24123916    -0.51300
O1719       O  0.63350796  0.66741462  0.22011177    -0.74500
O1720       O  0.63388676  0.70486732  0.22369821    -0.81300
O1721       O  0.69312764  0.63964673  0.20063162    -0.83000
O1722       O  0.62205452  0.72156903  0.19829986    -0.78600
O1723       O  0.67385659  0.65383210  0.22367917    -0.90300
O1724       O  0.61738790  0.66050762  0.19248405    -0.76200
O1725       O  0.63726960  0.69259405  0.18665655    -0.85700
O1726       O  0.66136284  0.65962363  0.18655241    -0.85400
O1727       O  0.66996594  0.71572964  0.19673884    -0.72200
O1728       O  0.69282049  0.68549653  0.19589259    -0.84300
Zr1729     Zr  0.67577112  0.69461725  0.13615340     2.26400
Zr1730     Zr  0.64566275  0.72254775  0.17310344     2.06300
Zr1731     Zr  0.69284600  0.65938203  0.17286177     2.10000
Zr1732     Zr  0.63666635  0.66681184  0.16418173     1.78800
O1733       O  0.72518917  0.65373237  0.18552853    -0.93100
O1734       O  0.60511785  0.67889631  0.15377326    -0.40900
O1735       O  0.66795927  0.66438502  0.14957667    -0.77500
O1736       O  0.64419652  0.69679686  0.14969563    -0.96200
O1737       O  0.67605535  0.72159046  0.15768896    -0.89500
O1738       O  0.70096901  0.68906489  0.15854119    -0.92400
C1739       C  0.61898752  0.66106748  0.21090797     1.01400
C1740       C  0.68491826  0.63984834  0.21704176     1.14300
C1741       C  0.62079763  0.71570822  0.21563328     1.05100
O1742       O  0.61492331  0.73707567  0.16321657    -0.94500
O1743       O  0.64565994  0.74071144  0.14348233    -0.90300
O1744       O  0.66070404  0.72203421  0.12077682    -0.83400
C1745       C  0.65136415  0.73742039  0.12614848     1.11700
O1746       O  0.71795861  0.72549237  0.20899430    -0.96500
Zr1747     Zr  0.70066325  0.71550229  0.18023371     1.88900
O1748       O  0.69976518  0.71489302  0.12441974    -0.73100
O1749       O  0.65288216  0.75332064  0.18860455    -0.52400
O1750       O  0.69663340  0.74991639  0.18766243    -0.97100
O1751       O  0.73477806  0.70645155  0.18267955    -0.54300
O1752       O  0.71361549  0.72983388  0.15012073    -0.73700
C1753       C  0.71128651  0.72688548  0.13180985     0.98700
O1754       O  0.66290450  0.68387964  0.10530649    -0.62500
O1755       O  0.68807342  0.62651365  0.16107256    -0.57300
O1756       O  0.70054067  0.67330471  0.12208065    -0.94000
O1757       O  0.71274588  0.65347817  0.14486004    -0.92400
O1758       O  0.63331188  0.63187022  0.16564473    -0.92700
O1759       O  0.62728345  0.65256277  0.13343371    -0.91500
C1760       C  0.71275391  0.66032177  0.12783993     1.17500
H1761       H  0.65831478  0.64728166  0.19190390     0.33500
H1762       H  0.63483337  0.69997739  0.13986893     0.44300
H1763       H  0.71351308  0.68858837  0.15255473     0.37800
H1764       H  0.66975531  0.72543803  0.20687097     0.34300
H1765       H  0.59599211  0.66932895  0.15857131     0.26100
H1766       H  0.64544939  0.76309423  0.18116706     0.32100
H1767       H  0.69594337  0.75623436  0.17497143     0.38000
H1768       H  0.61923816  0.62991720  0.16540130     0.32400
H1769       H  0.69969915  0.61910306  0.16528916     0.31300
H1770       H  0.72548818  0.66113494  0.19782459     0.33000
H1771       H  0.74112108  0.71351868  0.17224804     0.31900
H1772       H  0.63948282  0.64760661  0.12756327     0.35900
H1773       H  0.66609325  0.66983816  0.10454323     0.28700
H1774       H  0.68593715  0.68727577  0.24268142     0.32900
H1775       H  0.70821694  0.72532376  0.21939746     0.35800
H1776       H  0.67750569  0.62160296  0.16905914     0.28400
H1777       H  0.67127423  0.68968605  0.09554443     0.41200
H1778       H  0.60594782  0.72621841  0.16263208     0.31300
H1779       H  0.60256776  0.69059403  0.16184704     0.38900
H1780       H  0.73579820  0.69268758  0.17860969     0.30800
H1781       H  0.64631905  0.75307791  0.20124563     0.30800
H1782       H  0.66489094  0.68947069  0.25072133     0.31100
Zr1783     Zr  0.78693834  0.46670690  0.41856710     2.17500
O1784       O  0.77870203  0.49838704  0.43244669    -0.51300
O1785       O  0.80479687  0.47565796  0.39053294    -0.74500
O1786       O  0.81941435  0.47727401  0.42887921    -0.81300
O1787       O  0.74648807  0.45884468  0.38306513    -0.83000
O1788       O  0.83169166  0.45519814  0.45003081    -0.78600
O1789       O  0.76858234  0.48111162  0.39104890    -0.90300
O1790       O  0.81589239  0.44696151  0.37772784    -0.76200
O1791       O  0.81165712  0.44239674  0.42156339    -0.85700
O1792       O  0.78082967  0.44233337  0.39498747    -0.85400
O1793       O  0.78423056  0.45385570  0.45088534    -0.72200
O1794       O  0.75547750  0.45441734  0.42622939    -0.84300
Zr1795     Zr  0.77399001  0.39412340  0.43358763     2.26400
Zr1796     Zr  0.80942711  0.42937488  0.45313342     2.06300
Zr1797     Zr  0.74994634  0.43036843  0.40188035     2.10000
Zr1798     Zr  0.80664117  0.41948031  0.39672564     1.78800
O1799       O  0.71653745  0.44145596  0.40562422    -0.93100
O1800       O  0.84168450  0.41966369  0.39857709    -0.40900
O1801       O  0.77550994  0.40647148  0.40198370    -0.77500
O1802       O  0.80546862  0.40571242  0.42808910    -0.96200
O1803       O  0.77884927  0.41639546  0.45926593    -0.89500
O1804       O  0.74787193  0.41688412  0.43275677    -0.92400
C1805       C  0.81364229  0.46547874  0.37760054     1.01400
C1806       C  0.75482336  0.47479166  0.38024866     1.14300
C1807       C  0.83287064  0.47057762  0.44009811     1.05100
O1808       O  0.84215179  0.41577156  0.45423636    -0.94500
O1809       O  0.81108770  0.40059002  0.47342445    -0.90300
O1810       O  0.79137819  0.37927929  0.45929972    -0.83400
C1811       C  0.80332829  0.38390647  0.47239293     1.11700
O1812       O  0.74481047  0.47176003  0.47035634    -0.96500
Zr1813     Zr  0.75337407  0.43965642  0.45760186     1.88900
O1814       O  0.75163006  0.38391001  0.45660681    -0.73100
O1815       O  0.81241239  0.44435056  0.48487523    -0.52400
O1816       O  0.75989929  0.44312524  0.49189805    -0.97100
O1817       O  0.71887028  0.44666369  0.45491001    -0.54300
O1818       O  0.73915489  0.41049397  0.47243202    -0.73700
C1819       C  0.74086659  0.39198005  0.46934864     0.98700
O1820       O  0.78556046  0.36229401  0.42239729    -0.62500
O1821       O  0.74605306  0.42065348  0.36828448    -0.57300
O1822       O  0.74867695  0.37862933  0.41624017    -0.94000
O1823       O  0.73234347  0.40079097  0.39847474    -0.92400
O1824       O  0.80110169  0.41084188  0.36312712    -0.92700
O1825       O  0.81737082  0.38636480  0.38893394    -0.91500
C1826       C  0.73507532  0.38356569  0.40470712     1.17500
H1827       H  0.78066421  0.44705790  0.38200622     0.33500
H1828       H  0.81499631  0.39533212  0.42923436     0.44300
H1829       H  0.73557046  0.41097880  0.43447833     0.37800
H1830       H  0.78652227  0.46406696  0.46016802     0.34300
H1831       H  0.84555751  0.40729529  0.40466880     0.26100
H1832       H  0.80007175  0.44179806  0.49136245     0.32100
H1833       H  0.76316873  0.42985721  0.49625893     0.38000
H1834       H  0.81335607  0.41349385  0.35649581     0.32400
H1835       H  0.73353907  0.42658478  0.36434910     0.31300
H1836       H  0.71034534  0.43119434  0.41302278     0.33000
H1837       H  0.71424835  0.44758307  0.46838440     0.31900
H1838       H  0.82780829  0.38742221  0.37932505     0.35900
H1839       H  0.78279773  0.36199239  0.40841690     0.28700
H1840       H  0.76447258  0.49859699  0.43345386     0.32900
H1841       H  0.74175250  0.47956647  0.45885406     0.35800
H1842       H  0.75582431  0.42784085  0.36112559     0.28400
H1843       H  0.79977999  0.36273240  0.42315977     0.41200
H1844       H  0.84519938  0.41195302  0.44077358     0.31300
H1845       H  0.84612728  0.41824481  0.38507397     0.38900
H1846       H  0.71336971  0.43455836  0.44986804     0.30800
H1847       H  0.82205127  0.43609582  0.49162349     0.30800
H1848       H  0.78142316  0.50756284  0.42204216     0.31100
Zr1849     Zr  0.79314556  0.30204432  0.27306112     2.17500
O1850       O  0.77888254  0.29223208  0.24258696    -0.51300
O1851       O  0.82003004  0.31983678  0.26129343    -0.74500
O1852       O  0.78275377  0.33366745  0.25944799    -0.81300
O1853       O  0.82597070  0.25827464  0.28212321    -0.83000
O1854       O  0.76833620  0.35153019  0.28351238    -0.78600
O1855       O  0.81790515  0.27970266  0.25881445    -0.90300
O1856       O  0.83570526  0.33058240  0.28792815    -0.76200
O1857       O  0.79440278  0.32819837  0.29544761    -0.85700
O1858       O  0.81740351  0.29413377  0.29615650    -0.85400
O1859       O  0.76140331  0.30460190  0.28748995    -0.72200
O1860       O  0.78276328  0.27273290  0.28826779    -0.84300
Zr1861     Zr  0.77912731  0.29528985  0.34736893     2.26400
Zr1862     Zr  0.76344189  0.33095061  0.31018120     2.06300
Zr1863     Zr  0.80763147  0.26511814  0.31117886     2.10000
Zr1864     Zr  0.81935292  0.32075354  0.31741666     1.78800
O1865       O  0.80031637  0.23198771  0.30223971    -0.93100
O1866       O  0.82035512  0.35566370  0.32231392    -0.40900
O1867       O  0.81042041  0.29174393  0.33329592    -0.77500
O1868       O  0.78853955  0.32468353  0.33297394    -0.96200
O1869       O  0.75387948  0.30258323  0.32571006    -0.89500
O1870       O  0.77688565  0.26818811  0.32618731    -0.92400
C1871       C  0.83367906  0.32885205  0.26953901     1.01400
C1872       C  0.82842750  0.26556402  0.26544395     1.14300
C1873       C  0.77510617  0.34950959  0.26652353     1.05100
O1874       O  0.76689509  0.36333166  0.32378015    -0.94500
O1875       O  0.74229543  0.33550857  0.33766441    -0.90300
O1876       O  0.75488044  0.31690203  0.36125352    -0.83400
C1877       C  0.74251620  0.32942546  0.35500989     1.11700
O1878       O  0.73668560  0.26365861  0.27534426    -0.96500
Zr1879     Zr  0.75179934  0.27603457  0.30445975     1.88900
O1880       O  0.75308732  0.27774149  0.36029767    -0.73100
O1881       O  0.73251161  0.33907660  0.29538946    -0.52400
O1882       O  0.72020567  0.29119152  0.29893975    -0.97100
O1883       O  0.74877945  0.24106201  0.30192964    -0.54300
O1884       O  0.73453944  0.26837933  0.33500314    -0.73700
C1885       C  0.73807758  0.27008375  0.35326907     0.98700
O1886       O  0.79310735  0.30735990  0.37721977    -0.62500
O1887       O  0.84060668  0.25653462  0.32063738    -0.57300
O1888       O  0.79358067  0.26840020  0.36372751    -0.94000
O1889       O  0.80907850  0.24870514  0.34209519    -0.92400
O1890       O  0.85208095  0.30764901  0.32098853    -0.92700
O1891       O  0.83446159  0.33034864  0.34755616    -0.91500
C1892       C  0.80325182  0.25296112  0.35925623     1.17500
H1893       H  0.83009355  0.29264912  0.29059048     0.33500
H1894       H  0.78885919  0.33495017  0.34253418     0.44300
H1895       H  0.77377866  0.25656767  0.33293765     0.37800
H1896       H  0.75199222  0.30780886  0.27771792     0.34300
H1897       H  0.83095170  0.35987410  0.31395977     0.26100
H1898       H  0.72291182  0.33239058  0.30323860     0.32100
H1899       H  0.71363244  0.29109653  0.31158149     0.38000
H1900       H  0.86043036  0.31880175  0.31889871     0.32400
H1901       H  0.84894989  0.26128745  0.31026760     0.31300
H1902       H  0.81068665  0.22403099  0.30826870     0.33000
H1903       H  0.75057934  0.23630264  0.31519764     0.31900
H1904       H  0.83248497  0.31936729  0.35627109     0.35900
H1905       H  0.79048824  0.32151354  0.37719856     0.28700
H1906       H  0.78424926  0.30113756  0.23305914     0.32900
H1907       H  0.73718204  0.27441636  0.26611276     0.35800
H1908       H  0.84326163  0.26517392  0.33174990     0.28400
H1909       H  0.78469365  0.30251205  0.38748912     0.41200
H1910       H  0.75725467  0.37149910  0.31691710     0.31300
H1911       H  0.80846243  0.36082749  0.31615568     0.38900
H1912       H  0.76052536  0.23646366  0.29497653     0.30800
H1913       H  0.73023037  0.35299749  0.29837998     0.30800
H1914       H  0.76513857  0.29631213  0.24372646     0.31100
Zr1915     Zr  0.92727141  0.31344237  0.42598501     2.17500
O1916       O  0.96004224  0.30151597  0.43185617    -0.51300
O1917       O  0.93340109  0.34175759  0.40647404    -0.74500
O1918       O  0.93897174  0.30131241  0.39398953    -0.81300
O1919       O  0.92015143  0.35012007  0.46694131    -0.83000
O1920       O  0.91617726  0.28130648  0.38234824    -0.78600
O1921       O  0.94256800  0.33888979  0.44549883    -0.90300
O1922       O  0.90416441  0.35404115  0.39717556    -0.76200
O1923       O  0.90249298  0.31032669  0.40264004    -0.85700
O1924       O  0.90287206  0.33726896  0.43363859    -0.85400
O1925       O  0.91574509  0.28090583  0.43050673    -0.72200
O1926       O  0.91597792  0.30564095  0.45805396    -0.84300
Zr1927     Zr  0.85540771  0.29723078  0.44308805     2.26400
Zr1928     Zr  0.89143821  0.27824285  0.40630398     2.06300
Zr1929     Zr  0.89213915  0.33027883  0.46518693     2.10000
Zr1930     Zr  0.87871144  0.33475693  0.40981366     1.78800
O1931       O  0.90563846  0.32459675  0.49701221    -0.93100
O1932       O  0.87232521  0.33468442  0.37542134    -0.40900
O1933       O  0.86703036  0.32927205  0.44148755    -0.77500
O1934       O  0.86672127  0.30273731  0.41129280    -0.96200
O1935       O  0.87852425  0.27190662  0.43719749    -0.89500
O1936       O  0.87876983  0.29931760  0.46795320    -0.92400
C1937       C  0.92258932  0.35437784  0.39793383     1.01400
C1938       C  0.93662649  0.35097799  0.45872564     1.14300
C1939       C  0.93181179  0.29050959  0.38055883     1.05100
O1940       O  0.87569392  0.27503929  0.37513335    -0.94500
O1941       O  0.86509897  0.25625339  0.40656879    -0.90300
O1942       O  0.84209984  0.26987763  0.42592249    -0.83400
C1943       C  0.84820615  0.25668130  0.41401578     1.11700
O1944       O  0.93314730  0.26166222  0.47160813    -0.96500
Zr1945     Zr  0.90159367  0.27426054  0.46183269     1.88900
O1946       O  0.84559143  0.27485208  0.46585426    -0.73100
O1947       O  0.90870513  0.24724091  0.40259290    -0.52400
O1948       O  0.90529339  0.23998158  0.45365287    -0.97100
O1949       O  0.90879136  0.27684773  0.49609663    -0.54300
O1950       O  0.87267709  0.26069062  0.47847165    -0.73700
C1951       C  0.85409008  0.26331152  0.47730219     0.98700
O1952       O  0.82309749  0.30737915  0.43298606    -0.62500
O1953       O  0.88139621  0.36349223  0.47227327    -0.57300
O1954       O  0.84079609  0.31485731  0.47001667    -0.94000
O1955       O  0.86325806  0.33333343  0.48443364    -0.92400
O1956       O  0.87065155  0.36843624  0.41779522    -0.92700
O1957       O  0.84516523  0.34249681  0.40207163    -0.91500
C1958       C  0.84617103  0.32689229  0.48310142     1.17500
H1959       H  0.90754605  0.35026961  0.43347707     0.33500
H1960       H  0.85644297  0.30113436  0.40208980     0.44300
H1961       H  0.87331106  0.29782204  0.48060039     0.37800
H1962       H  0.92612915  0.27163882  0.42788873     0.34300
H1963       H  0.86899738  0.32115928  0.37238365     0.26100
H1964       H  0.90257324  0.23873335  0.41200629     0.32100
H1965       H  0.89683348  0.23338301  0.46279925     0.38000
H1966       H  0.86971225  0.37497492  0.40522348     0.32400
H1967       H  0.89053818  0.36843284  0.48197376     0.31300
H1968       H  0.89434610  0.32352247  0.50559356     0.33000
H1969       H  0.90588731  0.26398417  0.50128781     0.31900
H1970       H  0.83884603  0.34505540  0.41466345     0.35900
H1971       H  0.82161883  0.32107365  0.43722920     0.28700
H1972       H  0.96816635  0.30964000  0.42371298     0.32900
H1973       H  0.94187981  0.27253905  0.46964520     0.35800
H1974       H  0.88420416  0.37068496  0.46041943     0.28400
H1975       H  0.82380620  0.30794595  0.41877549     0.41200
H1976       H  0.88116946  0.26287178  0.36944830     0.31300
H1977       H  0.88503667  0.33639983  0.36933915     0.38900
H1978       H  0.89857982  0.28558027  0.50153522     0.30800
H1979       H  0.90460461  0.24217661  0.38988815     0.30800
H1980       H  0.96074989  0.28855960  0.42560113     0.31100
Zr1981     Zr  0.90998720  0.42533051  0.24946853     2.17500
O1982       O  0.92353912  0.43208505  0.21800096    -0.51300
O1983       O  0.89189222  0.39594185  0.24194558    -0.74500
O1984       O  0.93443893  0.40049061  0.24137739    -0.81300
O1985       O  0.88613904  0.47034638  0.24089527    -0.83000
O1986       O  0.94874653  0.39169310  0.26949709    -0.78600
O1987       O  0.88614695  0.44053557  0.22823436    -0.90300
O1988       O  0.87431226  0.39009709  0.26876471    -0.76200
O1989       O  0.90835389  0.40509656  0.27679431    -0.85700
O1990       O  0.88070569  0.43430801  0.26602302    -0.85400
O1991       O  0.93812155  0.43249941  0.26847436    -0.72200
O1992       O  0.91310959  0.45883452  0.25916307    -0.84300
Zr1993     Zr  0.90896402  0.45193733  0.32219582     2.26400
Zr1994     Zr  0.93615963  0.41176223  0.29553794     2.06300
Zr1995     Zr  0.88384116  0.46751879  0.27550878     2.10000
Zr1996     Zr  0.87917072  0.41390541  0.29303625     1.78800
O1997       O  0.88631396  0.50224508  0.27115029    -0.93100
O1998       O  0.87829105  0.38282931  0.30912176    -0.40900
O1999       O  0.88137371  0.44669897  0.30252577    -0.77500
O2000       O  0.90670542  0.41859984  0.31257061    -0.96200
O2001       O  0.93868927  0.44437315  0.30631605    -0.89500
O2002       O  0.91074098  0.47382980  0.29585223    -0.92400
C2003       C  0.88015361  0.38588871  0.25181601     1.01400
C2004       C  0.87960600  0.45809853  0.22882627     1.14300
C2005       C  0.94635711  0.39007212  0.25125280     1.05100
O2006       O  0.93609937  0.37795253  0.30483664    -0.94500
O2007       O  0.94198054  0.40773053  0.32939083    -0.90300
O2008       O  0.92253393  0.42878965  0.34591533    -0.83400
C2009       C  0.93443304  0.41405473  0.34513192     1.11700
O2010       O  0.95355287  0.47572090  0.24919088    -0.96500
Zr2011     Zr  0.94008156  0.46544552  0.27964510     1.88900
O2012       O  0.92873545  0.47901662  0.32937660    -0.73100
O2013       O  0.97102620  0.41388682  0.29793604    -0.52400
O2014       O  0.97441455  0.45860486  0.27521669    -0.97100
O2015       O  0.93666989  0.50057481  0.27766227    -0.54300
O2016       O  0.95452825  0.47661111  0.30963456    -0.73700
C2017       C  0.94634309  0.48192882  0.32546457     0.98700
O2018       O  0.90315150  0.45918212  0.35616432    -0.62500
O2019       O  0.85010011  0.47012615  0.26595908    -0.57300
O2020       O  0.87778165  0.46795947  0.32838994    -0.94000
O2021       O  0.86450161  0.48127274  0.30154635    -0.92400
O2022       O  0.84560633  0.41806942  0.28353984    -0.92700
O2023       O  0.85954133  0.41513916  0.32212265    -0.91500
C2024       C  0.86459599  0.47784004  0.31962277     1.17500
H2025       H  0.86947450  0.43242556  0.25810298     0.33500
H2026       H  0.90507739  0.40993513  0.32316958     0.44300
H2027       H  0.91017475  0.48719517  0.30010811     0.37800
H2028       H  0.94965668  0.42937159  0.26116471     0.34300
H2029       H  0.86579699  0.37737273  0.30531295     0.26100
H2030       H  0.97571575  0.40032082  0.29932778     0.32100
H2031       H  0.98083502  0.46979669  0.28118456     0.38000
H2032       H  0.83897801  0.40729962  0.28971940     0.32400
H2033       H  0.84882361  0.48255485  0.25913366     0.31300
H2034       H  0.87290688  0.50743909  0.27212906     0.33000
H2035       H  0.93177024  0.50316977  0.26454328     0.31900
H2036       H  0.86774843  0.42130271  0.33197076     0.35900
H2037       H  0.89059761  0.45351671  0.35925967     0.28700
H2038       H  0.92234138  0.41991730  0.21046711     0.32900
H2039       H  0.94922532  0.46600161  0.23965091     0.35800
H2040       H  0.84817828  0.46003087  0.25598063     0.28400
H2041       H  0.90084808  0.47336536  0.35713615     0.41200
H2042       H  0.92420380  0.37288447  0.29905713     0.31300
H2043       H  0.88805987  0.37453284  0.30235489     0.38900
H2044       H  0.95003480  0.50520123  0.27765732     0.30800
H2045       H  0.97333658  0.41996270  0.31067887     0.30800
H2046       H  0.93754242  0.43321792  0.22027767     0.31100
Zr2047     Zr  0.70853151  0.51434590  0.21144083     2.17500
O2048       O  0.68423603  0.52278490  0.18735847    -0.51300
O2049       O  0.70567191  0.54989225  0.21678492    -0.74500
O2050       O  0.67601721  0.51119426  0.22359152    -0.81300
O2051       O  0.74374488  0.49871946  0.17150709    -0.83000
O2052       O  0.67608160  0.50089214  0.25451327    -0.78600
O2053       O  0.71337826  0.51062816  0.17658676    -0.90300
O2054       O  0.72569415  0.55855151  0.24083031    -0.76200
O2055       O  0.71508782  0.52275763  0.24394551    -0.85700
O2056       O  0.74116608  0.52411213  0.21171953    -0.85400
O2057       O  0.70366836  0.48492534  0.22910450    -0.72200
O2058       O  0.72726571  0.48633695  0.20110615    -0.84300
Zr2059     Zr  0.76190188  0.47573442  0.25357704     2.26400
Zr2060     Zr  0.71002690  0.49399585  0.26187589     2.06300
Zr2061     Zr  0.75988976  0.49594999  0.20223794     2.10000
Zr2062     Zr  0.74802163  0.53170150  0.24456118     1.78800
O2063       O  0.77330655  0.47923085  0.17396236    -0.93100
O2064       O  0.74380513  0.54591529  0.27665919    -0.40900
O2065       O  0.76763509  0.50413506  0.23488041    -0.77500
O2066       O  0.74293628  0.50382563  0.26322361    -0.96200
O2067       O  0.72928601  0.46598305  0.25242471    -0.89500
O2068       O  0.75600956  0.46735050  0.22076498    -0.92400
C2069       C  0.71215522  0.56243547  0.22895862     1.01400
C2070       C  0.72710636  0.50437425  0.16547575     1.14300
C2071       C  0.66742987  0.50608687  0.23897966     1.05100
O2072       O  0.69848964  0.51828273  0.28519957    -0.94500
O2073       O  0.72385879  0.48722198  0.29321838    -0.90300
O2074       O  0.75491215  0.47663440  0.28857512    -0.83400
C2075       C  0.74047953  0.48167186  0.29952565     1.11700
O2076       O  0.69677766  0.44686337  0.20010009    -0.96500
Zr2077     Zr  0.72365872  0.45772816  0.21952375     1.88900
O2078       O  0.76306658  0.44018756  0.25271637    -0.73100
O2079       O  0.69092683  0.46797955  0.27432314    -0.52400
O2080       O  0.70128214  0.43640054  0.23508742    -0.97100
O2081       O  0.73448085  0.44388321  0.18874833    -0.54300
O2082       O  0.74318573  0.43003234  0.22919984    -0.73700
C2083       C  0.75597416  0.42674256  0.24207637     0.98700
O2084       O  0.78776803  0.47474120  0.27718687    -0.62500
O2085       O  0.77864634  0.52408237  0.19464481    -0.57300
O2086       O  0.79397255  0.47378926  0.23842375    -0.94000
O2087       O  0.79172220  0.48216545  0.20689945    -0.92400
O2088       O  0.76746408  0.55401540  0.22653184    -0.92700
O2089       O  0.77728441  0.54027845  0.26160529    -0.91500
C2090       C  0.80111985  0.47603969  0.22150655     1.17500
H2091       H  0.74289940  0.53484536  0.20320183     0.33500
H2092       H  0.74641537  0.50816370  0.27595048     0.44300
H2093       H  0.76469846  0.45712208  0.21621483     0.37800
H2094       H  0.69091836  0.47998785  0.22757038     0.34300
H2095       H  0.74405896  0.56007813  0.27478723     0.26100
H2096       H  0.70042497  0.45849263  0.27957258     0.32100
H2097       H  0.70726100  0.43333505  0.24765702     0.38000
H2098       H  0.75818267  0.56181762  0.21884565     0.32400
H2099       H  0.79219018  0.51921765  0.19422911     0.31300
H2100       H  0.78369685  0.48757275  0.16943858     0.33000
H2101       H  0.74565351  0.43526705  0.19184061     0.31900
H2102       H  0.78719046  0.53068236  0.25706999     0.35900
H2103       H  0.79522247  0.46272486  0.27402109     0.28700
H2104       H  0.67647555  0.53366240  0.19300059     0.32900
H2105       H  0.69705497  0.45494236  0.18845506     0.35800
H2106       H  0.77543413  0.52695311  0.18110203     0.28400
H2107       H  0.79634197  0.48537964  0.27379774     0.41200
H2108       H  0.69474680  0.52968935  0.27743729     0.31300
H2109       H  0.73026751  0.54343421  0.28008546     0.38900
H2110       H  0.74013055  0.45475746  0.18178571     0.30800
H2111       H  0.68432103  0.47372005  0.28576003     0.30800
H2112       H  0.67538845  0.51181006  0.18679017     0.31100
Zr2113     Zr  0.71345516  0.73599921  0.00808436     2.17500
O2114       O  0.68502425  0.72099450  0.02140628    -0.51300
O2115       O  0.71805113  0.73817777  0.04364311    -0.74500
O2116       O  0.71915500  0.70001807  0.00639091    -0.81300
O2117       O  0.68105183  0.77839042  0.98743009    -0.83000
O2118       O  0.75072194  0.69378651  0.99960231    -0.78600
O2119       O  0.68061207  0.74866579  0.00130820    -0.90300
O2120       O  0.73864510  0.76183983  0.05182057    -0.76200
O2121       O  0.74588753  0.73838251  0.01845666    -0.85700
O2122       O  0.71902098  0.76993673  0.01239677    -0.85400
O2123       O  0.73199012  0.72274277  0.98138229    -0.72200
O2124       O  0.70821853  0.75210452  0.97768374    -0.84300
Zr2125     Zr  0.76758418  0.77159455  0.96685673     2.26400
Zr2126     Zr  0.76457954  0.72418449  0.99268305     2.06300
Zr2127     Zr  0.71509308  0.78569847  0.98180400     2.10000
Zr2128     Zr  0.75167190  0.77221117  0.02213076     1.78800
O2129       O  0.69853205  0.79699830  0.95299111    -0.93100
O2130       O  0.77895540  0.76420932  0.04290973    -0.40900
O2131       O  0.74797320  0.78674889  0.99162301    -0.77500
O2132       O  0.77173584  0.75748058  0.99799594    -0.96200
O2133       O  0.76027573  0.73864130  0.96179299    -0.89500
O2134       O  0.73470990  0.77178532  0.95628339    -0.92400
C2135       C  0.72728538  0.74845801  0.05609156     1.01400
C2136       C  0.67214389  0.76387821  0.99427863     1.14300
C2137       C  0.73366998  0.68821734  0.00283368     1.05100
O2138       O  0.77865202  0.71434458  0.02322639    -0.94500
O2139       O  0.79854156  0.72841573  0.98713557    -0.90300
O2140       O  0.80014971  0.75805323  0.97352461    -0.83400
C2141       C  0.80792299  0.74265349  0.98081609     1.11700
O2142       O  0.70078559  0.71678530  0.94701693    -0.96500
Zr2143     Zr  0.72731474  0.73866279  0.95189907     1.88900
O2144       O  0.76964931  0.76449189  0.93204548    -0.73100
O2145       O  0.77796563  0.69684158  0.97401592    -0.52400
O2146       O  0.73762833  0.70770705  0.93751224    -0.97100
O2147       O  0.70274243  0.75171303  0.93018537    -0.54300
O2148       O  0.74541638  0.74468774  0.92360782    -0.73700
C2149       C  0.76011827  0.75449755  0.91972029     0.98700
O2150       O  0.79277025  0.79341126  0.95728616    -0.62500
O2151       O  0.70176653  0.81219176  0.00160639    -0.57300
O2152       O  0.76266916  0.80655835  0.96676593    -0.94000
O2153       O  0.73177549  0.81580265  0.97393827    -0.92400
O2154       O  0.73596359  0.80195587  0.03413613    -0.92700
O2155       O  0.77474770  0.79769325  0.02685967    -0.91500
C2156       C  0.74921750  0.81957021  0.96898424     1.17500
H2157       H  0.71035127  0.77548213  0.02199253     0.33500
H2158       H  0.78435050  0.75899251  0.00341132     0.44300
H2159       H  0.73319463  0.77900271  0.94455003     0.37800
H2160       H  0.72848726  0.71014169  0.97678621     0.34300
H2161       H  0.77490240  0.76820193  0.05607210     0.26100
H2162       H  0.78295988  0.70254777  0.96208030     0.32100
H2163       H  0.74945911  0.70385851  0.94459691     0.38000
H2164       H  0.73645150  0.80096900  0.04832828     0.32400
H2165       H  0.69158574  0.81828838  0.99355087     0.31300
H2166       H  0.68669232  0.80376593  0.95780487     0.33000
H2167       H  0.70695857  0.74742040  0.91715773     0.31900
H2168       H  0.77900709  0.80088143  0.01370467     0.35900
H2169       H  0.80212673  0.79379242  0.96803000     0.28700
H2170       H  0.68628590  0.72202522  0.03556702     0.32900
H2171       H  0.70065624  0.71362684  0.93307299     0.35800
H2172       H  0.69467541  0.80594763  0.01208280     0.28400
H2173       H  0.79970507  0.78674220  0.94655896     0.41200
H2174       H  0.79121924  0.70811962  0.01976772     0.31300
H2175       H  0.77953504  0.74989269  0.04315254     0.38900
H2176       H  0.70443844  0.76586063  0.93031339     0.30800
H2177       H  0.78959318  0.69239634  0.98112433     0.30800
H2178       H  0.68634382  0.70697117  0.01853699     0.31100
Zr2179     Zr  0.15542503  0.18754043  0.20945589     2.17500
O2180       O  0.17075298  0.19477094  0.24014432    -0.51300
O2181       O  0.12782278  0.17035813  0.22133486    -0.74500
O2182       O  0.13358333  0.20977598  0.22730570    -0.81300
O2183       O  0.17980476  0.13939235  0.19507864    -0.83000
O2184       O  0.12390518  0.23180592  0.20517309    -0.78600
O2185       O  0.16812027  0.15631008  0.22121416    -0.90300
O2186       O  0.10849763  0.16687899  0.19528910    -0.76200
O2187       O  0.13110209  0.20197833  0.18972568    -0.85700
O2188       O  0.14852739  0.16430851  0.18486854    -0.85400
O2189       O  0.16836874  0.21707657  0.19693970    -0.72200
O2190       O  0.18504750  0.18182051  0.19179066    -0.84300
Zr2191     Zr  0.16466081  0.20141000  0.13599221     2.26400
Zr2192     Zr  0.14364081  0.23088865  0.17663118     2.06300
Zr2193     Zr  0.17747360  0.15886609  0.16683378     2.10000
Zr2194     Zr  0.12345817  0.17840992  0.16632571     1.78800
O2195       O  0.21046208  0.14647773  0.16986591    -0.93100
O2196       O  0.09296070  0.19655005  0.16878931    -0.40900
O2197       O  0.15204840  0.17201448  0.14778575    -0.77500
O2198       O  0.13493985  0.20731374  0.15264976    -0.96200
O2199       O  0.17270212  0.22539241  0.15916951    -0.89500
O2200       O  0.19000405  0.18752425  0.15456710    -0.92400
C2201       C  0.11219958  0.16499036  0.21327380     1.01400
C2202       C  0.17561132  0.14105790  0.21295510     1.14300
C2203       C  0.12271928  0.22404208  0.22175790     1.05100
O2204       O  0.12032931  0.25790864  0.17787202    -0.94500
O2205       O  0.13285082  0.24372924  0.14548177    -0.90300
O2206       O  0.15755958  0.23428109  0.12687162    -0.83400
C2207       C  0.14093566  0.24225941  0.12885482     1.11700
O2208       O  0.21311697  0.21531285  0.20933296    -0.96500
Zr2209     Zr  0.19736499  0.21093633  0.17834115     1.88900
O2210       O  0.19346593  0.21391741  0.12348626    -0.73100
O2211       O  0.16264975  0.25831821  0.18663508    -0.52400
O2212       O  0.20485416  0.24476546  0.18366022    -0.97100
O2213       O  0.22898630  0.19478111  0.17989296    -0.54300
O2214       O  0.21421968  0.21901529  0.14834370    -0.73700
C2215       C  0.20966908  0.21880953  0.13034885     0.98700
O2216       O  0.14530602  0.19667471  0.10721946    -0.62500
O2217       O  0.16554032  0.12733015  0.15732996    -0.57300
O2218       O  0.18086506  0.17855053  0.11518024    -0.94000
O2219       O  0.18733895  0.15222301  0.13343030    -0.92400
O2220       O  0.11232390  0.14584183  0.16009627    -0.92700
O2221       O  0.10849597  0.17444059  0.13494036    -0.91500
C2222       C  0.18755836  0.16134667  0.11735442     1.17500
H2223       H  0.14428888  0.15231976  0.19016726     0.33500
H2224       H  0.12489792  0.21154166  0.14394825     0.44300
H2225       H  0.20132034  0.18432689  0.14696789     0.37800
H2226       H  0.17098335  0.22588650  0.20746937     0.34300
H2227       H  0.09397081  0.20728083  0.15960460     0.26100
H2228       H  0.16318622  0.26650316  0.17507626     0.32100
H2229       H  0.21843295  0.24570827  0.17950370     0.38000
H2230       H  0.12400579  0.13835667  0.15597350     0.32400
H2231       H  0.17650700  0.11815333  0.15950880     0.31300
H2232       H  0.20960812  0.13232658  0.16781858     0.33000
H2233       H  0.23826383  0.20531261  0.17868374     0.31900
H2234       H  0.11839245  0.16749213  0.12700482     0.35900
H2235       H  0.14466893  0.18246387  0.10554754     0.28700
H2236       H  0.17317727  0.20880473  0.23981948     0.32900
H2237       H  0.20577450  0.20732298  0.21830642     0.35800
H2238       H  0.15604032  0.12419202  0.16735863     0.28400
H2239       H  0.13207946  0.20064347  0.11120541     0.41200
H2240       H  0.10760861  0.25192462  0.17642465     0.31300
H2241       H  0.08332057  0.18790252  0.16306741     0.38900
H2242       H  0.23028972  0.18732968  0.16767029     0.30800
H2243       H  0.15430857  0.26579041  0.19578607     0.30800
H2244       H  0.18370499  0.18846078  0.23920823     0.31100
Zr2245     Zr  0.03813287  0.06729664  0.22218208     2.17500
O2246       O  0.02466337  0.05652040  0.25245225    -0.51300
O2247       O  0.05407958  0.09689729  0.23210726    -0.74500
O2248       O  0.06488543  0.05687920  0.24261932    -0.81300
O2249       O  0.99676809  0.09887723  0.20498298    -0.83000
O2250       O  0.08244604  0.03481746  0.22473805    -0.78600
O2251       O  0.01337988  0.09112564  0.23211754    -0.90300
O2252       O  0.06976232  0.10668401  0.20533035    -0.76200
O2253       O  0.06708517  0.06328056  0.20398511    -0.85700
O2254       O  0.03516914  0.08872446  0.19568802    -0.85400
O2255       O  0.03990605  0.03366640  0.21208254    -0.72200
O2256       O  0.01013314  0.05725270  0.20450093    -0.84300
Zr2257     Zr  0.03923199  0.04342981  0.15076224     2.26400
Zr2258     Zr  0.06888113  0.03018663  0.19337782     2.06300
Zr2259     Zr  0.00760829  0.07904234  0.17797856     2.10000
Zr2260     Zr  0.06442428  0.08524297  0.17822055     1.78800
O2261       O  0.97305391  0.07443198  0.18012224    -0.93100
O2262       O  0.09933673  0.08314308  0.18147266    -0.40900
O2263       O  0.03678940  0.07678375  0.15970175    -0.77500
O2264       O  0.06745970  0.05243546  0.16747763    -0.96200
O2265       O  0.04165906  0.02023674  0.17542582    -0.89500
O2266       O  0.00969763  0.04631959  0.16782110    -0.92400
C2267       C  0.06452587  0.10875535  0.22296507     1.01400
C2268       C  0.00062046  0.10119027  0.22291295     1.14300
C2269       C  0.07917389  0.04492099  0.23999251     1.05100
O2270       O  0.10391880  0.02937534  0.19173493    -0.94500
O2271       O  0.08210170  0.01172416  0.16584413    -0.90300
O2272       O  0.06392302  0.02107810  0.14054268    -0.83400
C2273       C  0.07789192  0.01130866  0.14782352     1.11700
O2274       O  0.99824711  0.01407670  0.22333032    -0.96500
Zr2275     Zr  0.01253494  0.02407145  0.19316572     1.88900
O2276       O  0.02188979  0.01662628  0.13945800    -0.73100
O2277       O  0.06904881  0.99803287  0.20724902    -0.52400
O2278       O  0.02194321  0.99083215  0.20077874    -0.97100
O2279       O  0.97742713  0.02481755  0.19440514    -0.54300
O2280       O  0.00200689  0.00735355  0.16344045    -0.73700
C2281       C  0.00798553  0.00700728  0.14586170     0.98700
O2282       O  0.05225000  0.05255334  0.11963782    -0.62500
O2283       O  0.00305970  0.11192975  0.16628895    -0.57300
O2284       O  0.01525641  0.05438293  0.12898868    -0.94000
O2285       O  0.99792698  0.07826277  0.14407525    -0.92400
O2286       O  0.05839330  0.11782020  0.16626769    -0.92700
O2287       O  0.08035469  0.09128717  0.14773468    -0.91500
C2288       C  0.00242822  0.06788164  0.12909182     1.17500
H2289       H  0.03332473  0.10202885  0.19984671     0.33500
H2290       H  0.07872615  0.05088218  0.15938033     0.44300
H2291       H  0.99864348  0.04348160  0.15996948     0.37800
H2292       H  0.04105018  0.02556745  0.22326533     0.34300
H2293       H  0.10341749  0.09672947  0.18096045     0.26100
H2294       H  0.06973423  0.98904929  0.19603522     0.32100
H2295       H  0.03211268  0.98712054  0.19133459     0.38000
H2296       H  0.07071321  0.12446853  0.16814894     0.32400
H2297       H  0.98929242  0.11522474  0.16872416     0.31300
H2298       H  0.96744418  0.08219046  0.16953607     0.33000
H2299       H  0.97316923  0.02573969  0.18084469     0.31900
H2300       H  0.07342015  0.08340255  0.13814718     0.35900
H2301       H  0.04880536  0.06647367  0.11833856     0.28700
H2302       H  0.03096593  0.06444843  0.26247548     0.32900
H2303       H  0.00776553  0.01743277  0.23334731     0.35800
H2304       H  0.01014506  0.12014709  0.17549884     0.28400
H2305       H  0.06642360  0.05222683  0.12122557     0.41200
H2306       H  0.10758938  0.04294093  0.19403279     0.31300
H2307       H  0.10162539  0.07934843  0.19496622     0.38900
H2308       H  0.97392898  0.03764363  0.20011019     0.30800
H2309       H  0.08182406  0.99654142  0.21347024     0.30800
H2310       H  0.03011765  0.04327205  0.25421915     0.31100
Zr2311     Zr  0.05201603  0.20305500  0.04983509     2.17500
O2312       O  0.03394859  0.23169721  0.03941176    -0.51300
O2313       O  0.07646464  0.21882004  0.06810183    -0.74500
O2314       O  0.03779100  0.21532998  0.08117293    -0.81300
O2315       O  0.07326639  0.20035588  0.00193672    -0.83000
O2316       O  0.02886439  0.18924981  0.09843191    -0.78600
O2317       O  0.07608663  0.21829059  0.02853752    -0.90300
O2318       O  0.09749087  0.19468575  0.07698565    -0.76200
O2319       O  0.05863794  0.18119300  0.07524503    -0.85700
O2320       O  0.07961005  0.18326702  0.04066514    -0.85400
O2321       O  0.02374366  0.18349582  0.05228918    -0.72200
O2322       O  0.04288348  0.18604866  0.02052667    -0.84300
Zr2323     Zr  0.05133918  0.12648778  0.04061324     2.26400
Zr2324     Zr  0.03124002  0.16152719  0.07779142     2.06300
Zr2325     Zr  0.07091981  0.16708244  0.01143241     2.10000
Zr2326     Zr  0.08654286  0.16270478  0.06655623     1.78800
O2327       O  0.06265234  0.17055650  0.97759490    -0.93100
O2328       O  0.08927587  0.15913105  0.10125570    -0.40900
O2329       O  0.07918693  0.14571783  0.03713679    -0.77500
O2330       O  0.05942236  0.14233330  0.07028441    -0.96200
O2331       O  0.02319543  0.14462334  0.04927864    -0.89500
O2332       O  0.04381814  0.14713037  0.01445317    -0.92400
C2333       C  0.09188961  0.21262523  0.07626985     1.01400
C2334       C  0.08216659  0.21308156  0.01159651     1.14300
C2335       C  0.03126910  0.20733965  0.09663218     1.05100
O2336       O  0.04048310  0.14926500  0.10926146    -0.94500
O2337       O  0.01501922  0.13125308  0.08091488    -0.90300
O2338       O  0.02968465  0.10918017  0.06108530    -0.83400
C2339       C  0.01700185  0.11408368  0.07381965     1.11700
O2340       O  0.99724638  0.19272266  0.01127995    -0.96500
Zr2341     Zr  0.01572352  0.16510633  0.02356995     1.88900
O2342       O  0.02717517  0.10980852  0.02285337    -0.73100
O2343       O  0.99901524  0.17178936  0.08806408    -0.52400
O2344       O  0.98368755  0.16746257  0.03778958    -0.97100
O2345       O  0.01043501  0.16502152  0.98888633    -0.54300
O2346       O  0.00295411  0.13203166  0.01763378    -0.73700
C2347       C  0.01000041  0.11444394  0.01769014     0.98700
O2348       O  0.07044633  0.09892397  0.05223480    -0.62500
O2349       O  0.10528926  0.16735423  0.00418265    -0.57300
O2350       O  0.06898742  0.11272883  0.01361935    -0.94000
O2351       O  0.07797506  0.13701467  0.99433751    -0.92400
O2352       O  0.11980769  0.16453448  0.05569827    -0.92700
O2353       O  0.10643883  0.13410037  0.07372146    -0.91500
C2354       C  0.07689833  0.11905270  0.99834006     1.17500
H2355       H  0.09136865  0.19015609  0.03904480     0.33500
H2356       H  0.06189238  0.13284649  0.08012201     0.44300
H2357       H  0.04152092  0.13981776  0.00278066     0.37800
H2358       H  0.01282433  0.19170787  0.05597032     0.34300
H2359       H  0.07889035  0.16769933  0.10663221     0.26100
H2360       H  0.99033180  0.16597417  0.07845518     0.32100
H2361       H  0.98238353  0.15522082  0.04483727     0.38000
H2362       H  0.12712680  0.16837279  0.06730362     0.32400
H2363       H  0.11032655  0.15441192  0.00796134     0.31300
H2364       H  0.05294482  0.16064640  0.97499921     0.33000
H2365       H  0.01441115  0.15187289  0.98434312     0.31900
H2366       H  0.10186840  0.12400667  0.06471440     0.35900
H2367       H  0.06482633  0.08752794  0.04581461     0.28700
H2368       H  0.04002913  0.24254629  0.04633394     0.32900
H2369       H  0.00209186  0.20396398  0.01860689     0.35800
H2370       H  0.11085533  0.17632258  0.01375730     0.28400
H2371       H  0.06687720  0.09773451  0.06595559     0.41200
H2372       H  0.02817310  0.14616199  0.11554844     0.31300
H2373       H  0.08502195  0.14589062  0.10392599     0.38900
H2374       H  0.02037059  0.17355506  0.98375970     0.30800
H2375       H  0.99681142  0.16466697  0.10008804     0.30800
H2376       H  0.02116179  0.23067159  0.04556985     0.31100
Zr2377     Zr  0.16996754  0.00884653  0.06052579     2.17500
O2378       O  0.18900569  0.97874080  0.05961925    -0.51300
O2379       O  0.14554730  0.00142998  0.08388408    -0.74500
O2380       O  0.18374930  0.00682750  0.09340891    -0.81300
O2381       O  0.13579622  0.99914200  0.01928523    -0.83000
O2382       O  0.19371546  0.03704835  0.10100029    -0.78600
O2383       O  0.14666587  0.98532796  0.04674824    -0.90300
O2384       O  0.12474990  0.02747982  0.08370236    -0.76200
O2385       O  0.16309476  0.03842028  0.07747502    -0.85700
O2386       O  0.14268081  0.02430415  0.04566741    -0.85400
O2387       O  0.19836796  0.02830986  0.05649803    -0.72200
O2388       O  0.18099594  0.01455892  0.02792781    -0.84300
Zr2389     Zr  0.16992094  0.07827339  0.02705184     2.26400
Zr2390     Zr  0.19053911  0.05760328  0.07356790     2.06300
Zr2391     Zr  0.15306704  0.02819932  0.01309768     2.10000
Zr2392     Zr  0.13553876  0.05301781  0.06317190     1.78800
O2393       O  0.17617677  0.00998291  0.99304614    -0.93100
O2394       O  0.13290374  0.06801828  0.09506117    -0.40900
O2395       O  0.14323514  0.05753428  0.03004325    -0.77500
O2396       O  0.16233858  0.07337903  0.06036027    -0.96200
O2397       O  0.19849435  0.06530431  0.04149443    -0.89500
O2398       O  0.17875904  0.04960717  0.00897621    -0.92400
C2399       C  0.13017208  0.01059482  0.08937246     1.01400
C2400       C  0.13520619  0.98592980  0.03200305     1.14300
C2401       C  0.19050301  0.01949485  0.10531110     1.05100
O2402       O  0.18455662  0.07750928  0.10226576    -0.94500
O2403       O  0.20191999  0.08946928  0.06917440    -0.90300
O2404       O  0.18256483  0.10432260  0.04743974    -0.83400
C2405       C  0.19505051  0.10465858  0.06117150     1.11700
O2406       O  0.22619579  0.00734722  0.01847429    -0.96500
Zr2407     Zr  0.20718388  0.03706569  0.02399816     1.88900
O2408       O  0.19312337  0.08149979  0.00213601    -0.73100
O2409       O  0.22453436  0.05379449  0.08164633    -0.52400
O2410       O  0.23924419  0.03785495  0.03811588    -0.97100
O2411       O  0.21360606  0.03199827  0.98971050    -0.54300
O2412       O  0.21973689  0.06945440  0.01556944    -0.73700
C2413       C  0.21066322  0.08311557  0.00651786     0.98700
O2414       O  0.16192263  0.11150075  0.01810724    -0.62500
O2415       O  0.13423193  0.02038475  0.98442982    -0.57300
O2416       O  0.14296036  0.08065428  0.00486275    -0.94000
O2417       O  0.13687956  0.05098661  0.99227676    -0.92400
O2418       O  0.10208479  0.04790453  0.05442193    -0.92700
O2419       O  0.11587640  0.08253161  0.05962628    -0.91500
C2420       C  0.13405957  0.06930549  0.99332687     1.17500
H2421       H  0.13073000  0.01775545  0.04715021     0.33500
H2422       H  0.15941901  0.08550389  0.06694290     0.44300
H2423       H  0.18018992  0.05149384  0.99530866     0.37800
H2424       H  0.20925404  0.02184820  0.06254842     0.34300
H2425       H  0.13374149  0.08210870  0.09300499     0.26100
H2426       H  0.23126891  0.06181166  0.07221988     0.32100
H2427       H  0.24788634  0.04053103  0.02718838     0.38000
H2428       H  0.09478627  0.04978801  0.06658682     0.32400
H2429       H  0.14255825  0.01162843  0.97644179     0.31300
H2430       H  0.17171717  0.99650264  0.99317729     0.33000
H2431       H  0.22767916  0.02941845  0.98881128     0.31900
H2432       H  0.12018652  0.08807852  0.04734335     0.35900
H2433       H  0.16313788  0.11185387  0.00391698     0.28700
H2434       H  0.18766062  0.97384717  0.04624133     0.32900
H2435       H  0.22092560  0.99805849  0.02768438     0.35800
H2436       H  0.12357916  0.01224605  0.98862699     0.28400
H2437       H  0.14799060  0.11350826  0.02076979     0.41200
H2438       H  0.17171124  0.08371093  0.10022901     0.31300
H2439       H  0.11936961  0.06617764  0.09896638     0.38900
H2440       H  0.21175056  0.04488626  0.98384858     0.30800
H2441       H  0.22587083  0.06078031  0.09408880     0.30800
H2442       H  0.18156122  0.96973749  0.06747508     0.31100
Zr2443     Zr  0.25024555  0.25655168  0.96461716     2.17500
O2444       O  0.27407427  0.26668876  0.94120761    -0.51300
O2445       O  0.24774705  0.29213499  0.96778298    -0.74500
O2446       O  0.23919373  0.25556460  0.93187183    -0.81300
O2447       O  0.29089087  0.24457900  0.00131178    -0.83000
O2448       O  0.20979802  0.24266577  0.92786750    -0.78600
O2449       O  0.28447333  0.25327403  0.97057297    -0.90300
O2450       O  0.22512563  0.30081284  0.99008078    -0.76200
O2451       O  0.21681719  0.26322228  0.96942504    -0.85700
O2452       O  0.24787330  0.26464196  0.99776798    -0.85400
O2453       O  0.23461346  0.22707452  0.95564849    -0.72200
O2454       O  0.26257107  0.22866746  0.98111844    -0.84300
Zr2455     Zr  0.20959790  0.21334955  0.01185906     2.26400
Zr2456     Zr  0.20086167  0.23370012  0.96115569     2.06300
Zr2457     Zr  0.25943694  0.23657236  0.01446975     2.10000
Zr2458     Zr  0.21441124  0.27067731  0.00295593     1.78800
O2459       O  0.28313639  0.21363454  0.02743542    -0.93100
O2460       O  0.18501168  0.28737992  0.99213724    -0.40900
O2461       O  0.22576580  0.24272025  0.02013863    -0.77500
O2462       O  0.19811699  0.24183770  0.99492995    -0.96200
O2463       O  0.21235561  0.20552390  0.97834719    -0.89500
O2464       O  0.24320754  0.20714924  0.00671401    -0.92400
C2465       C  0.23795036  0.30487119  0.97769079     1.01400
C2466       C  0.29615874  0.24998971  0.98451605     1.14300
C2467       C  0.22506099  0.25056231  0.92130266     1.05100
O2468       O  0.17698403  0.25757408  0.95024470    -0.94500
O2469       O  0.16934734  0.22525695  0.97467598    -0.90300
O2470       O  0.17467040  0.21449125  0.00511686    -0.83400
C2471       C  0.16337512  0.21938733  0.99115231     1.11700
O2472       O  0.27017651  0.19461510  0.94807910    -0.96500
Zr2473     Zr  0.24608724  0.19981422  0.97322921     1.88900
O2474       O  0.21376991  0.17744598  0.00930142    -0.73100
O2475       O  0.18959993  0.20846549  0.93945133    -0.52400
O2476       O  0.23533459  0.18221569  0.94480603    -0.97100
O2477       O  0.27523389  0.18302833  0.98449192    -0.54300
O2478       O  0.23469573  0.16988942  0.98509004    -0.73700
C2479       C  0.22314646  0.16513327  0.99837681     0.98700
O2480       O  0.19019069  0.20196431  0.03846158    -0.62500
O2481       O  0.27033496  0.26365171  0.03405085    -0.57300
O2482       O  0.21966342  0.21915624  0.04538263    -0.94000
O2483       O  0.25030029  0.22997549  0.04723752    -0.92400
O2484       O  0.22706175  0.28995481  0.02940963    -0.92700
O2485       O  0.19133624  0.27489748  0.02909032    -0.91500
C2486       C  0.23459347  0.22456478  0.05485643     1.17500
H2487       H  0.25542674  0.27573076  0.00103324     0.33500
H2488       H  0.18521576  0.24578899  0.99855246     0.44300
H2489       H  0.24790033  0.19663210  0.01460579     0.37800
H2490       H  0.23716530  0.22314335  0.94250558     0.34300
H2491       H  0.18724219  0.28992632  0.97833907     0.26100
H2492       H  0.18152002  0.20022471  0.94749929     0.32100
H2493       H  0.22284462  0.18848879  0.94137017     0.38000
H2494       H  0.21909777  0.30207116  0.02956428     0.32400
H2495       H  0.25905781  0.26763813  0.04204145     0.31300
H2496       H  0.28993015  0.22100506  0.03755210     0.33000
H2497       H  0.27179934  0.17746326  0.99704155     0.31900
H2498       H  0.19273417  0.26272274  0.03635262     0.35900
H2499       H  0.18082578  0.21263909  0.04155717     0.28700
H2500       H  0.26820202  0.27790152  0.93445517     0.32900
H2501       H  0.27695494  0.20700192  0.94751190     0.35800
H2502       H  0.27962237  0.25779369  0.04323939     0.28400
H2503       H  0.18236617  0.19145967  0.03302615     0.41200
H2504       H  0.16771217  0.25004149  0.94259037     0.31300
H2505       H  0.17487815  0.27759990  0.99216037     0.38900
H2506       H  0.28417135  0.19348054  0.98777560     0.30800
H2507       H  0.18039287  0.21517347  0.93074998     0.30800
H2508       H  0.27525206  0.25621813  0.93136490     0.31100
Zr2509     Zr  0.18807578  0.01544551  0.23254961     2.17500
O2510       O  0.16027798  0.01185133  0.21147098    -0.51300
O2511       O  0.18838987  0.05024754  0.22900978    -0.74500
O2512       O  0.15814818  0.02403739  0.24926924    -0.81300
O2513       O  0.22445890  0.00136823  0.19235158    -0.83000
O2514       O  0.15762489  0.01261019  0.27983669    -0.78600
O2515       O  0.19394485  0.01285485  0.19826371    -0.90300
O2516       O  0.20863384  0.06100706  0.25185562    -0.76200
O2517       O  0.19470275  0.02531276  0.26461887    -0.85700
O2518       O  0.22115550  0.02365492  0.23212624    -0.85400
O2519       O  0.18069904  0.98859724  0.25221528    -0.72200
O2520       O  0.20617886  0.98718051  0.22266470    -0.84300
Zr2521     Zr  0.23914806  0.97639543  0.27535175     2.26400
Zr2522     Zr  0.18918484  0.99791729  0.28444348     2.06300
Zr2523     Zr  0.23965879  0.99476916  0.22373302     2.10000
Zr2524     Zr  0.22749495  0.03349448  0.26422877     1.78800
O2525       O  0.25140412  0.96718648  0.20448897    -0.93100
O2526       O  0.21748716  0.05197212  0.29286295    -0.40900
O2527       O  0.24569564  0.00434275  0.25624989    -0.77500
O2528       O  0.22242850  0.00638121  0.28464964    -0.96200
O2529       O  0.20599581  0.96870325  0.27480978    -0.89500
O2530       O  0.23263077  0.96702365  0.24285214    -0.92400
C2531       C  0.19595692  0.06399230  0.23868961     1.01400
C2532       C  0.20777728  0.00785426  0.18677849     1.14300
C2533       C  0.15000819  0.02159554  0.26565292     1.05100
O2534       O  0.18021033  0.01984464  0.31090815    -0.94500
O2535       O  0.20302768  0.99079487  0.31560953    -0.90300
O2536       O  0.23387230  0.98047694  0.30998814    -0.83400
C2537       C  0.21994644  0.98570710  0.32129943     1.11700
O2538       O  0.17274595  0.95467532  0.21951309    -0.96500
Zr2539     Zr  0.19885493  0.96041799  0.24209735     1.88900
O2540       O  0.23664436  0.94049621  0.27409753    -0.73100
O2541       O  0.16750225  0.97290051  0.29454420    -0.52400
O2542       O  0.17214970  0.94365244  0.25658669    -0.97100
O2543       O  0.20821657  0.94123708  0.21373296    -0.54300
O2544       O  0.21173842  0.93127869  0.25520949    -0.73700
C2545       C  0.22567619  0.92761210  0.26656570     0.98700
O2546       O  0.26338635  0.96200702  0.29673808    -0.62500
O2547       O  0.25961148  0.01699382  0.20615033    -0.57300
O2548       O  0.27240507  0.98291311  0.26591964    -0.94000
O2549       O  0.27365812  0.99216421  0.23472122    -0.92400
O2550       O  0.25291192  0.05063908  0.24800866    -0.92700
O2551       O  0.25415740  0.04507461  0.28344187    -0.91500
C2552       C  0.28180187  0.98808330  0.25096391     1.17500
H2553       H  0.22327916  0.03381706  0.22304312     0.33500
H2554       H  0.22636336  0.01132259  0.29702757     0.44300
H2555       H  0.24047114  0.95587386  0.23897504     0.37800
H2556       H  0.16711097  0.98609997  0.25140220     0.34300
H2557       H  0.22020336  0.06559027  0.28986623     0.26100
H2558       H  0.17605195  0.96256532  0.29981192     0.32100
H2559       H  0.16151396  0.95340782  0.25800222     0.38000
H2560       H  0.24830271  0.05273976  0.23471001     0.32400
H2561       H  0.26299741  0.01004410  0.19400532     0.31300
H2562       H  0.26402773  0.97116195  0.19951578     0.33000
H2563       H  0.21991978  0.93375212  0.21759517     0.31900
H2564       H  0.25295105  0.03848414  0.29590783     0.35900
H2565       H  0.27151235  0.97274374  0.30115768     0.28700
H2566       H  0.15305841  0.02438146  0.21204680     0.32900
H2567       H  0.16664163  0.96760586  0.21751872     0.35800
H2568       H  0.25082502  0.02774019  0.20218429     0.28400
H2569       H  0.27192192  0.95374309  0.28844416     0.41200
H2570       H  0.17033131  0.01299778  0.31826537     0.31300
H2571       H  0.20324945  0.05151871  0.29293780     0.38900
H2572       H  0.21293396  0.95077790  0.20447325     0.30800
H2573       H  0.16074674  0.97853732  0.30594546     0.30800
H2574       H  0.15188955  0.00265841  0.21803804     0.31100
Zr2575     Zr  0.01060644  0.99184208  0.02386621     2.17500
O2576       O  0.03419140  0.01440042  0.03623100    -0.51300
O2577       O  0.00381551  0.99151043  0.05869301    -0.74500
O2578       O  0.00059642  0.02619567  0.01998073    -0.81300
O2579       O  0.04992276  0.95084489  0.01826703    -0.83000
O2580       O  0.97093323  0.02844662  0.00603240    -0.78600
O2581       O  0.04536443  0.98258870  0.02647093    -0.90300
O2582       O  0.98087745  0.96991902  0.06585504    -0.76200
O2583       O  0.97677105  0.98773991  0.02818625    -0.85700
O2584       O  0.00677467  0.95906191  0.03292878    -0.85400
O2585       O  0.99608766  0.99870492  0.99287586    -0.72200
O2586       O  0.02336726  0.97269414  0.99724157    -0.84300
Zr2587     Zr  0.97038109  0.94259552  0.98081418     2.26400
Zr2588     Zr  0.96201951  0.99506567  0.99765872     2.06300
Zr2589     Zr  0.01925582  0.93995154  0.00664705     2.10000
Zr2590     Zr  0.97302936  0.95443303  0.03624102     1.78800
O2591       O  0.04727665  0.92742853  0.98885941    -0.93100
O2592       O  0.94177006  0.96436165  0.04964312    -0.40900
O2593       O  0.98556249  0.93447045  0.01068677    -0.77500
O2594       O  0.95758578  0.96211923  0.00678969    -0.96200
O2595       O  0.97402570  0.97525331  0.97145444    -0.89500
O2596       O  0.00409232  0.94627306  0.97634383    -0.92400
C2597       C  0.99288893  0.98270081  0.07051558     1.01400
C2598       C  0.05611967  0.96715023  0.02409790     1.14300
C2599       C  0.98607394  0.03607113  0.01333223     1.05100
O2600       O  0.93629462  0.00758081  0.01859160    -0.94500
O2601       O  0.93155835  0.98299390  0.98410386    -0.90300
O2602       O  0.93698668  0.95192409  0.97343536    -0.83400
C2603       C  0.92601075  0.96705671  0.97617326     1.11700
O2604       O  0.03189945  0.00289350  0.96204686    -0.96500
Zr2605     Zr  0.00768230  0.97856599  0.96683378     1.88900
O2606       O  0.97182941  0.94345198  0.94610619    -0.73100
O2607       O  0.95381997  0.01640926  0.97108625    -0.52400
O2608       O  0.99447840  0.00402258  0.94635337    -0.97100
O2609       O  0.03729317  0.96636073  0.95149027    -0.54300
O2610       O  0.99729643  0.96115012  0.93789376    -0.73700
C2611       C  0.98334938  0.95005556  0.93355792     0.98700
O2612       O  0.94696978  0.91708026  0.98289204    -0.62500
O2613       O  0.02456727  0.91866999  0.03392634    -0.57300
O2614       O  0.98657531  0.91099108  0.97596642    -0.94000
O2615       O  0.01480266  0.90845045  0.99262121    -0.92400
O2616       O  0.98488776  0.92793101  0.05618237    -0.92700
O2617       O  0.95069732  0.92814879  0.03954783    -0.91500
C2618       C  0.00196397  0.90171154  0.98142642     1.17500
H2619       H  0.01367914  0.95620713  0.04466279     0.33500
H2620       H  0.94412400  0.95968666  0.00879077     0.44300
H2621       H  0.00919736  0.93763632  0.96643410     0.37800
H2622       H  0.99883831  0.01149832  0.98854578     0.34300
H2623       H  0.94335264  0.96355940  0.06377161     0.26100
H2624       H  0.94868868  0.00784563  0.96088790     0.32100
H2625       H  0.98164698  0.99954606  0.94236337     0.38000
H2626       H  0.99268602  0.93398864  0.06640643     0.32400
H2627       H  0.03305970  0.90804523  0.02883875     0.31300
H2628       H  0.05307816  0.91725789  0.99711801     0.33000
H2629       H  0.03477545  0.96695377  0.93748316     0.31900
H2630       H  0.94352164  0.92787579  0.02724028     0.35900
H2631       H  0.94762171  0.91018797  0.97032798     0.28700
H2632       H  0.02726932  0.02257793  0.04595628     0.32900
H2633       H  0.03213942  0.00520869  0.94801713     0.35800
H2634       H  0.03289311  0.92591625  0.04287716     0.28400
H2635       H  0.95247973  0.90774568  0.99221853     0.41200
H2636       H  0.94298445  0.01334142  0.02977542     0.31300
H2637       H  0.94057561  0.97839491  0.04710188     0.38900
H2638       H  0.03802422  0.95236882  0.95431790     0.30800
H2639       H  0.94246575  0.02412297  0.97571780     0.30800
H2640       H  0.03695925  0.02319576  0.02550806     0.31100
Zr2641     Zr  0.00180584  0.22090983  0.22202514     2.17500
O2642       O  0.02669236  0.19603757  0.21556766    -0.51300
O2643       O  0.00695376  0.22040480  0.18643744    -0.74500
O2644       O  0.99156918  0.18787011  0.22700699    -0.81300
O2645       O  0.03725504  0.25992458  0.23693957    -0.83000
O2646       O  0.96037622  0.18666108  0.23678172    -0.78600
O2647       O  0.03501226  0.22793658  0.22998713    -0.90300
O2648       O  0.98742316  0.24338318  0.17345397    -0.76200
O2649       O  0.96907366  0.22329060  0.21197239    -0.85700
O2650       O  0.99882897  0.25268599  0.20954181    -0.85400
O2651       O  0.98262644  0.21707614  0.25087909    -0.72200
O2652       O  0.00843008  0.24267337  0.24832846    -0.84300
Zr2653     Zr  0.95235891  0.27331524  0.25329299     2.26400
Zr2654     Zr  0.94960479  0.22021387  0.24058949     2.06300
Zr2655     Zr  0.00474891  0.27441396  0.23579535     2.10000
Zr2656     Zr  0.96620533  0.25505376  0.19920347     1.78800
O2657       O  0.02397217  0.29336026  0.25801740    -0.93100
O2658       O  0.94610857  0.23435729  0.17942396    -0.40900
O2659       O  0.97191249  0.27746945  0.22513243    -0.77500
O2660       O  0.94575324  0.25164135  0.22674980    -0.96200
O2661       O  0.95606438  0.24206121  0.26676983    -0.89500
O2662       O  0.98497297  0.27120135  0.26382715    -0.92400
C2663       C  0.00082775  0.23032272  0.17188634     1.01400
C2664       C  0.04478658  0.24282350  0.23451622     1.14300
C2665       C  0.97675520  0.17868398  0.23248777     1.05100
O2666       O  0.92654878  0.20434234  0.21972274    -0.94500
O2667       O  0.91641339  0.23236079  0.24560738    -0.90300
O2668       O  0.91832982  0.26443412  0.25248156    -0.83400
C2669       C  0.90859238  0.24910002  0.24937744     1.11700
O2670       O  0.01411475  0.21739404  0.28807372    -0.96500
Zr2671     Zr  0.98905354  0.23959067  0.27643925     1.88900
O2672       O  0.95350099  0.27905813  0.28834391    -0.73100
O2673       O  0.93973665  0.20312732  0.26924085    -0.52400
O2674       O  0.97836782  0.21426371  0.29763501    -0.97100
O2675       O  0.01620632  0.25535660  0.29164360    -0.54300
O2676       O  0.97351938  0.25736610  0.30276834    -0.73700
C2677       C  0.96122143  0.27152543  0.30347035     0.98700
O2678       O  0.92640515  0.29758276  0.25774782    -0.62500
O2679       O  0.01969382  0.28900734  0.20799702    -0.57300
O2680       O  0.96163070  0.30573019  0.24484275    -0.94000
O2681       O  0.99317466  0.30781617  0.23670768    -0.92400
O2682       O  0.97267587  0.28503719  0.18273029    -0.92700
O2683       O  0.93863544  0.27172030  0.18457205    -0.91500
C2684       C  0.97632049  0.31527891  0.23970661     1.17500
H2685       H  0.00815491  0.25502269  0.19960987     0.33500
H2686       H  0.93288772  0.25368446  0.22182841     0.44300
H2687       H  0.98772200  0.28121016  0.27317778     0.37800
H2688       H  0.98518729  0.20477148  0.25686005     0.34300
H2689       H  0.95447965  0.22305327  0.17578991     0.26100
H2690       H  0.93136755  0.21251742  0.27646472     0.32100
H2691       H  0.96471362  0.21774037  0.30043966     0.38000
H2692       H  0.98410368  0.28202019  0.17458911     0.32400
H2693       H  0.00880830  0.29491902  0.20075183     0.31300
H2694       H  0.03367706  0.29948715  0.24982596     0.33000
H2695       H  0.01148570  0.26864042  0.29489835     0.31900
H2696       H  0.93080113  0.27675838  0.19554056     0.35900
H2697       H  0.93133757  0.30712516  0.26715091     0.28700
H2698       H  0.02153453  0.18766906  0.20522155     0.32900
H2699       H  0.02298000  0.21558284  0.27699767     0.35800
H2700       H  0.02663202  0.30017148  0.21334792     0.28400
H2701       H  0.92533229  0.30464841  0.24548172     0.41200
H2702       H  0.92091720  0.19426471  0.22781188     0.31300
H2703       H  0.93661830  0.22915572  0.18849233     0.38900
H2704       H  0.02559012  0.25708093  0.28111465     0.30800
H2705       H  0.93085944  0.19320753  0.26443056     0.30800
H2706       H  0.02745350  0.18777894  0.22708010     0.31100
Zr2707     Zr  0.44884402  0.76281538  0.26850783     2.17500
O2708       O  0.43600784  0.78467813  0.29358814    -0.51300
O2709       O  0.41367513  0.75825155  0.26780381    -0.74500
O2710       O  0.44803489  0.79713523  0.25916601    -0.81300
O2711       O  0.46403327  0.72338505  0.30561162    -0.83000
O2712       O  0.45986183  0.80049492  0.22883366    -0.78600
O2713       O  0.45450621  0.75498167  0.30252128    -0.90300
O2714       O  0.40632071  0.73505419  0.24578243    -0.76200
O2715       O  0.44225058  0.75895622  0.23498314    -0.85700
O2716       O  0.44273011  0.72923106  0.26415188    -0.85400
O2717       O  0.47765697  0.77215385  0.25179752    -0.72200
O2718       O  0.47767444  0.74554049  0.27813021    -0.84300
Zr2719     Zr  0.49323566  0.71683064  0.22346712     2.26400
Zr2720     Zr  0.47090178  0.76784744  0.21796956     2.06300
Zr2721     Zr  0.47165801  0.71190994  0.27330987     2.10000
Zr2722     Zr  0.43633551  0.72538067  0.23062869     1.78800
O2723       O  0.49716100  0.69937816  0.29417322    -0.93100
O2724       O  0.41734855  0.74090994  0.20537567    -0.40900
O2725       O  0.46470963  0.70729582  0.23983994    -0.77500
O2726       O  0.46440857  0.73421282  0.21340892    -0.96200
O2727       O  0.49970013  0.75027544  0.22759047    -0.89500
O2728       O  0.50033953  0.72060097  0.25671276    -0.92400
C2729       C  0.40164906  0.74745929  0.25887584     1.01400
C2730       C  0.45902121  0.74002279  0.31263884     1.14300
C2731       C  0.45260258  0.80748963  0.24465339     1.05100
O2732       O  0.44626514  0.77873780  0.19536498    -0.94500
O2733       O  0.48264439  0.75659084  0.18572712    -0.90300
O2734       O  0.49464695  0.72609027  0.19023368    -0.83400
C2735       C  0.49076332  0.74060719  0.17952571     1.11700
O2736       O  0.51257376  0.77984732  0.28431456    -0.96500
Zr2737     Zr  0.50599986  0.75415903  0.26109675     1.88900
O2738       O  0.52857375  0.71695938  0.22715109    -0.73100
O2739       O  0.49436569  0.79081899  0.20701915    -0.52400
O2740       O  0.52274623  0.78205474  0.24914833    -0.97100
O2741       O  0.52129610  0.74214472  0.29037447    -0.54300
O2742       O  0.53596853  0.74059229  0.24871512    -0.73700
C2743       C  0.54067961  0.72716722  0.23662867     0.98700
O2744       O  0.50185334  0.69503662  0.19666081    -0.62500
O2745       O  0.44778821  0.69064271  0.28668294    -0.57300
O2746       O  0.49021095  0.68280185  0.23104316    -0.94000
O2747       O  0.47997867  0.67944940  0.26184125    -0.92400
O2748       O  0.42100949  0.69522836  0.23840547    -0.92700
O2749       O  0.43090024  0.70370153  0.20331031    -0.91500
C2750       C  0.48558998  0.67256391  0.24550133     1.17500
H2751       H  0.43218457  0.72515244  0.27205085     0.33500
H2752       H  0.46139478  0.73157496  0.20011501     0.44300
H2753       H  0.51117824  0.71246913  0.26053759     0.37800
H2754       H  0.48088220  0.78532476  0.25469803     0.34300
H2755       H  0.41252022  0.75332237  0.21108144     0.26100
H2756       H  0.49866612  0.79745330  0.21891298     0.32100
H2757       H  0.52760896  0.77798331  0.23629415     0.38000
H2758       H  0.43119617  0.68733051  0.24478015     0.32400
H2759       H  0.44574057  0.68053092  0.27673141     0.31300
H2760       H  0.49088795  0.68961526  0.30215568     0.33000
H2761       H  0.52852892  0.73021692  0.28635728     0.31900
H2762       H  0.44065982  0.70679240  0.19352776     0.35900
H2763       H  0.49076866  0.68651124  0.19473957     0.28700
H2764       H  0.42513858  0.79200969  0.28764986     0.32900
H2765       H  0.52666407  0.77913954  0.28655919     0.35800
H2766       H  0.45457075  0.68378207  0.29722423     0.28400
H2767       H  0.51244932  0.68648502  0.20133290     0.41200
H2768       H  0.45330429  0.78627317  0.18575385     0.31300
H2769       H  0.42686805  0.74468114  0.19561091     0.38900
H2770       H  0.51057435  0.73749927  0.29831003     0.30800
H2771       H  0.50568342  0.78275663  0.20289647     0.30800
H2772       H  0.44604528  0.79432987  0.29592569     0.31100
Zr2773     Zr  0.00380357  0.51748861  0.49121700     2.17500
O2774       O  0.01588983  0.54267893  0.51246959    -0.51300
O2775       O  0.03971409  0.51340824  0.48853223    -0.74500
O2776       O  0.00320320  0.50846064  0.52508224    -0.81300
O2777       O  0.98742164  0.55483525  0.45210666    -0.83000
O2778       O  0.99183293  0.47833036  0.52945229    -0.78600
O2779       O  0.99691191  0.55181461  0.48329228    -0.90300
O2780       O  0.04714079  0.48783359  0.46879606    -0.76200
O2781       O  0.01013712  0.48354559  0.48768057    -0.85700
O2782       O  0.01145865  0.51249777  0.45812520    -0.85400
O2783       O  0.97458405  0.50185555  0.50098592    -0.72200
O2784       O  0.97537737  0.52736357  0.47390458    -0.84300
Zr2785     Zr  0.96044603  0.47261269  0.44587017     2.26400
Zr2786     Zr  0.98118245  0.46780003  0.49705398     2.06300
Zr2787     Zr  0.98299098  0.52209517  0.44079748     2.10000
Zr2788     Zr  0.01724533  0.47852483  0.45436056     1.78800
O2789       O  0.96078101  0.54510653  0.42562202    -0.93100
O2790       O  0.03430695  0.44900091  0.46421266    -0.40900
O2791       O  0.98937819  0.48818517  0.43622210    -0.77500
O2792       O  0.98889516  0.46210597  0.46353558    -0.96200
O2793       O  0.95290045  0.47747496  0.47914828    -0.89500
O2794       O  0.95399078  0.50641495  0.44957987    -0.92400
C2795       C  0.05193342  0.50132577  0.48041228     1.01400
C2796       C  0.99174422  0.56196475  0.46858292     1.14300
C2797       C  0.99923731  0.49409114  0.53581428     1.05100
O2798       O  0.00393386  0.44330059  0.50893156    -0.94500
O2799       O  0.97032499  0.43575617  0.48687810    -0.90300
O2800       O  0.95911170  0.43890290  0.45626810    -0.83400
C2801       C  0.96318458  0.42876200  0.47121588     1.11700
O2802       O  0.94250520  0.53470335  0.50905260    -0.96500
Zr2803     Zr  0.94672201  0.51133873  0.48276440     1.88900
O2804       O  0.92505480  0.47782337  0.44652602    -0.73100
O2805       O  0.95536656  0.46017087  0.51915881    -0.52400
O2806       O  0.92735913  0.49970210  0.50919491    -0.97100
O2807       O  0.93068820  0.54100165  0.47176109    -0.54300
O2808       O  0.91698504  0.50133951  0.46813775    -0.73700
C2809       C  0.91247410  0.48893022  0.45522831     0.98700
O2810       O  0.94994317  0.45070960  0.42033604    -0.62500
O2811       O  0.00981814  0.53108339  0.42042258    -0.57300
O2812       O  0.96400292  0.48090248  0.41174283    -0.94000
O2813       O  0.97304804  0.51212809  0.40920752    -0.92400
O2814       O  0.03660843  0.49170619  0.42869273    -0.92700
O2815       O  0.02077550  0.45474153  0.42833546    -0.91500
C2816       C  0.96757583  0.49612065  0.40197551     1.17500
H2817       H  0.02248298  0.51982574  0.45447391     0.33500
H2818       H  0.99218629  0.44865279  0.46107105     0.44300
H2819       H  0.94351571  0.51077200  0.44142349     0.37800
H2820       H  0.97093585  0.50499932  0.51407531     0.34300
H2821       H  0.04770509  0.45031123  0.45962059     0.26100
H2822       H  0.96180265  0.45267361  0.52948317     0.32100
H2823       H  0.92278925  0.48697513  0.50471311     0.38000
H2824       H  0.02764234  0.49302162  0.41768114     0.32400
H2825       H  0.00369723  0.53780129  0.40941611     0.31300
H2826       H  0.96863199  0.55175240  0.41597132     0.33000
H2827       H  0.91834255  0.53721520  0.46590995     0.31900
H2828       H  0.00789880  0.44906054  0.42711256     0.35900
H2829       H  0.96037220  0.44076248  0.41878008     0.28700
H2830       H  0.02781692  0.53717466  0.51825401     0.32900
H2831       H  0.95573098  0.53857161  0.51238122     0.35800
H2832       H  0.01631444  0.54145712  0.42766500     0.28400
H2833       H  0.93890112  0.44377311  0.42566336     0.41200
H2834       H  0.01604454  0.45024344  0.51104711     0.31300
H2835       H  0.03519711  0.45012518  0.47839690     0.38900
H2836       H  0.93857139  0.54512972  0.46076127     0.30800
H2837       H  0.95167141  0.47270147  0.52537021     0.30800
H2838       H  0.00659943  0.54384586  0.52325589     0.31100
Zr2839     Zr  0.50174586  0.52599090  0.03229386     2.17500
O2840       O  0.50454127  0.54884654  0.05913898    -0.51300
O2841       O  0.53678344  0.52341763  0.02938911    -0.74500
O2842       O  0.50783929  0.50968003  0.06291422    -0.81300
O2843       O  0.48943563  0.56712812  0.99729466    -0.83000
O2844       O  0.49304411  0.48069927  0.06285834    -0.78600
O2845       O  0.50129202  0.56126408  0.02722275    -0.90300
O2846       O  0.54406645  0.49803239  0.00963820    -0.76200
O2847       O  0.50695021  0.49234590  0.02565623    -0.85700
O2848       O  0.51003361  0.52382051  0.99901757    -0.85400
O2849       O  0.47222221  0.51026002  0.04013123    -0.72200
O2850       O  0.47448210  0.53865621  0.01501565    -0.84300
Zr2851     Zr  0.45728057  0.48683742  0.98210814     2.26400
Zr2852     Zr  0.47734126  0.47661192  0.03197372     2.06300
Zr2853     Zr  0.48238443  0.53592865  0.98162401     2.10000
Zr2854     Zr  0.51489570  0.49010996  0.99261093     1.78800
O2855       O  0.45904350  0.55914931  0.96845880    -0.93100
O2856       O  0.52967651  0.45928875  0.00246139    -0.40900
O2857       O  0.48725777  0.50203068  0.97533097    -0.77500
O2858       O  0.48553355  0.47392552  0.99845809    -0.96200
O2859       O  0.44944740  0.48922337  0.01549829    -0.89500
O2860       O  0.45254142  0.52066307  0.98865042    -0.92400
C2861       C  0.54891291  0.51131675  0.02151930     1.01400
C2862       C  0.49603762  0.57292430  0.01370489     1.14300
C2863       C  0.50326686  0.49371867  0.07081194     1.05100
O2864       O  0.49452444  0.44801341  0.04388943    -0.94500
O2865       O  0.46789503  0.44556403  0.01862524    -0.90300
O2866       O  0.45660421  0.45146886  0.98852808    -0.83400
C2867       C  0.46124417  0.43985643  0.00233680     1.11700
O2868       O  0.44217552  0.54487050  0.04999708    -0.96500
Zr2869     Zr  0.44525662  0.52306480  0.02227710     1.88900
O2870       O  0.42200621  0.49506938  0.98263416    -0.73100
O2871       O  0.45026943  0.47112023  0.05329209    -0.52400
O2872       O  0.42481360  0.51030827  0.04729527    -0.97100
O2873       O  0.43089116  0.55448320  0.01408494    -0.54300
O2874       O  0.41503503  0.51612019  0.00719083    -0.73700
C2875       C  0.41005158  0.50557927  0.99289878     0.98700
O2876       O  0.44236416  0.46847625  0.95628309    -0.62500
O2877       O  0.50857171  0.54800912  0.96223889    -0.57300
O2878       O  0.46604046  0.49551473  0.94899336    -0.94000
O2879       O  0.47845426  0.52559553  0.94793360    -0.92400
O2880       O  0.53238233  0.50465784  0.96638014    -0.92700
O2881       O  0.52470748  0.46750476  0.96708665    -0.91500
C2882       C  0.47305053  0.50981009  0.93976636     1.17500
H2883       H  0.52134447  0.53105952  0.99613817     0.33500
H2884       H  0.48874957  0.46087165  0.99436875     0.44300
H2885       H  0.44234560  0.52617245  0.98082156     0.37800
H2886       H  0.46955124  0.51177834  0.05372104     0.34300
H2887       H  0.53560136  0.46195613  0.01514290     0.26100
H2888       H  0.44236066  0.46162028  0.04632218     0.32100
H2889       H  0.43362550  0.50721139  0.05808604     0.38000
H2890       H  0.52225437  0.50942073  0.95745454     0.32400
H2891       H  0.50244275  0.55816634  0.95420573     0.31300
H2892       H  0.46680047  0.57016462  0.96436892     0.33000
H2893       H  0.42887315  0.55388358  0.99999064     0.31900
H2894       H  0.51579390  0.45664366  0.96814200     0.35900
H2895       H  0.45143692  0.45745426  0.95364036     0.28700
H2896       H  0.51780185  0.54695438  0.06410599     0.32900
H2897       H  0.45507380  0.55047073  0.05136126     0.35800
H2898       H  0.51685606  0.55508240  0.97135298     0.28400
H2899       H  0.43094439  0.46258272  0.96209202     0.41200
H2900       H  0.50830248  0.45047621  0.04155429     0.31300
H2901       H  0.51888546  0.45077540  0.00542897     0.38900
H2902       H  0.44139174  0.56374182  0.01583216     0.30800
H2903       H  0.45592840  0.46382558  0.06417847     0.30800
H2904       H  0.49605766  0.54416063  0.06943268     0.31100
Zr2905     Zr  0.44768940  0.98117217  0.46758849     2.17500
O2906       O  0.44173343  0.95677063  0.44271416    -0.51300
O2907       O  0.41208739  0.98578802  0.46869342    -0.74500
O2908       O  0.44906904  0.94725654  0.47935395    -0.81300
O2909       O  0.45774656  0.01963035  0.42902452    -0.83000
O2910       O  0.46161797  0.94592209  0.50964647    -0.78600
O2911       O  0.44611389  0.98961211  0.43325448    -0.90300
O2912       O  0.40384784  0.01031058  0.48948541    -0.76200
O2913       O  0.44076673  0.98651126  0.50090939    -0.85700
O2914       O  0.43966923  0.01479276  0.47097400    -0.85400
O2915       O  0.47719422  0.97339850  0.48458267    -0.72200
O2916       O  0.47564478  0.99828485  0.45718516    -0.84300
Zr2917     Zr  0.48880886  0.02965346  0.51203252     2.26400
Zr2918     Zr  0.47005498  0.97887304  0.51816845     2.06300
Zr2919     Zr  0.46726354  0.03192164  0.46083208     2.10000
Zr2920     Zr  0.43291859  0.02020622  0.50427463     1.78800
O2921       O  0.49216182  0.04325338  0.43940605    -0.93100
O2922       O  0.41454524  0.00549178  0.52983376    -0.40900
O2923       O  0.46012571  0.03776447  0.49424916    -0.77500
O2924       O  0.46101715  0.01239122  0.52236326    -0.96200
O2925       O  0.49773983  0.99633154  0.50847608    -0.89500
O2926       O  0.49624648  0.02470845  0.47863369    -0.92400
C2927       C  0.39967944  0.99742243  0.47704466     1.01400
C2928       C  0.45007384  0.00408812  0.42255111     1.14300
C2929       C  0.45476952  0.93791253  0.49444495     1.05100
O2930       O  0.44691268  0.96813090  0.54179907    -0.94500
O2931       O  0.47990744  0.99047001  0.55019712    -0.90300
O2932       O  0.48807189  0.02184313  0.54651359    -0.83400
C2933       C  0.48504354  0.00698729  0.55700762     1.11700
O2934       O  0.51164655  0.96607867  0.45106501    -0.96500
Zr2935     Zr  0.50455495  0.99121991  0.47513550     1.88900
O2936       O  0.52405775  0.02686114  0.51077139    -0.73100
O2937       O  0.49628941  0.95675410  0.52734642    -0.52400
O2938       O  0.52086976  0.96251605  0.48799299    -0.97100
O2939       O  0.52164831  0.00203728  0.44677567    -0.54300
O2940       O  0.53391961  0.00413856  0.48877665    -0.73700
C2941       C  0.53726121  0.01678978  0.50194658     0.98700
O2942       O  0.50149821  0.05536131  0.53258848    -0.62500
O2943       O  0.44217836  0.05329102  0.44752216    -0.57300
O2944       O  0.48095047  0.06312856  0.50289228    -0.94000
O2945       O  0.47232782  0.06507989  0.47134565    -0.92400
O2946       O  0.41616293  0.05000665  0.49476182    -0.92700
O2947       O  0.42581363  0.04266046  0.53084484    -0.91500
C2948       C  0.47615128  0.07273700  0.48779154     1.17500
H2949       H  0.42883864  0.01846301  0.46298207     0.33500
H2950       H  0.45698841  0.01530351  0.53537153     0.44300
H2951       H  0.50660572  0.03282578  0.47472923     0.37800
H2952       H  0.48122020  0.96012144  0.48224858     0.34300
H2953       H  0.40183883  0.01236750  0.52969742     0.26100
H2954       H  0.50646946  0.96517261  0.53240631     0.32100
H2955       H  0.53445690  0.96611220  0.48974951     0.38000
H2956       H  0.40282410  0.04884992  0.49957661     0.32400
H2957       H  0.43271054  0.04480406  0.44127881     0.31300
H2958       H  0.48562416  0.05351165  0.43179971     0.33000
H2959       H  0.52587201  0.01521159  0.45012253     0.31900
H2960       H  0.42997445  0.03594629  0.54267337     0.35900
H2961       H  0.51052884  0.04890818  0.54165066     0.28700
H2962       H  0.43096635  0.94905667  0.44748100     0.32900
H2963       H  0.49906476  0.96018494  0.44845353     0.35800
H2964       H  0.43528791  0.05877747  0.45891378     0.28400
H2965       H  0.51004877  0.06282573  0.52423356     0.41200
H2966       H  0.43522540  0.96515486  0.53428846     0.31300
H2967       H  0.41193978  0.99227592  0.52506878     0.38900
H2968       H  0.51147773  0.00411018  0.43696930     0.30800
H2969       H  0.49140345  0.95007963  0.53879886     0.30800
H2970       H  0.45315730  0.94785661  0.44271061     0.31100
Zr2971     Zr  0.68552381  0.22812867  0.51860994     2.17500
O2972       O  0.66311294  0.21781608  0.54331727    -0.51300
O2973       O  0.68597934  0.19270114  0.51626202    -0.74500
O2974       O  0.65202943  0.23172739  0.50841214    -0.81300
O2975       O  0.72278280  0.24435051  0.55691454    -0.83000
O2976       O  0.64959641  0.24302307  0.47787288    -0.78600
O2977       O  0.69236158  0.23379265  0.55274711    -0.90300
O2978       O  0.70616289  0.18266606  0.49238148    -0.76200
O2979       O  0.68993863  0.22061236  0.48531163    -0.85700
O2980       O  0.71862898  0.21823833  0.51598377    -0.85400
O2981       O  0.67765062  0.25772183  0.50192104    -0.72200
O2982       O  0.70420408  0.25492647  0.52861956    -0.84300
Zr2983     Zr  0.73413952  0.26744378  0.47410658     2.26400
Zr2984     Zr  0.68259018  0.25006613  0.46838439     2.06300
Zr2985     Zr  0.73729838  0.24573731  0.52494957     2.10000
Zr2986     Zr  0.72312026  0.21108808  0.48273863     1.78800
O2987       O  0.75297673  0.26914482  0.54575120    -0.93100
O2988       O  0.71630168  0.19238277  0.45366913    -0.40900
O2989       O  0.74183118  0.23834159  0.49153419    -0.77500
O2990       O  0.71566055  0.23955298  0.46479463    -0.96200
O2991       O  0.70113673  0.27725463  0.47833030    -0.89500
O2992       O  0.73015682  0.27482721  0.50757260    -0.92400
C2993       C  0.69372252  0.17937791  0.50545512     1.01400
C2994       C  0.70621341  0.23971545  0.56343964     1.14300
C2995       C  0.64221618  0.23719985  0.49368060     1.05100
O2996       O  0.66856142  0.22820250  0.44484560    -0.94500
O2997       O  0.69396892  0.25696652  0.43587832    -0.90300
O2998       O  0.72532352  0.26525487  0.43937885    -0.83400
C2999       C  0.71042126  0.26141441  0.42894044     1.11700
O3000       O  0.67352801  0.29016869  0.53760388    -0.96500
Zr3001     Zr  0.69698431  0.28379727  0.51202834     1.88900
O3002       O  0.73210267  0.30349981  0.47838197    -0.73100
O3003       O  0.66390982  0.27841500  0.45808707    -0.52400
O3004       O  0.66934134  0.30393277  0.50237908    -0.97100
O3005       O  0.71196715  0.29849331  0.54023927    -0.54300
O3006       O  0.70903279  0.31284783  0.50007405    -0.73700
C3007       C  0.72209416  0.31648094  0.48800468     0.98700
O3008       O  0.75922188  0.28012324  0.45356191    -0.62500
O3009       O  0.75581443  0.21890352  0.53883668    -0.57300
O3010       O  0.76818542  0.25875992  0.48257276    -0.94000
O3011       O  0.77022841  0.24937874  0.51383042    -0.92400
O3012       O  0.74854533  0.19339160  0.49983878    -0.92700
O3013       O  0.74882302  0.20502261  0.45950483    -0.91500
C3014       C  0.77792373  0.25339451  0.49760811     1.17500
H3015       H  0.72153821  0.20722108  0.52398656     0.33500
H3016       H  0.71832615  0.23492757  0.45191235     0.44300
H3017       H  0.73864341  0.28496072  0.51154491     0.37800
H3018       H  0.66482973  0.26281770  0.50448595     0.34300
H3019       H  0.71960038  0.17877309  0.45687534     0.26100
H3020       H  0.65258017  0.27310027  0.45142609     0.32100
H3021       H  0.67179440  0.31703061  0.50760701     0.38000
H3022       H  0.75493625  0.18490281  0.49003425     0.32400
H3023       H  0.76698064  0.22495443  0.54511625     0.31300
H3024       H  0.76019289  0.26121527  0.55523362     0.33000
H3025       H  0.72353682  0.30496896  0.53548025     0.31900
H3026       H  0.75135396  0.21797197  0.45431751     0.35900
H3027       H  0.76140754  0.27029622  0.44322987     0.28700
H3028       H  0.65575748  0.20722726  0.53740730     0.32900
H3029       H  0.67503925  0.30385685  0.54155972     0.35800
H3030       H  0.74785781  0.21441397  0.54962432     0.28400
H3031       H  0.75314860  0.29137445  0.44701683     0.41200
H3032       H  0.67964416  0.22044691  0.43965572     0.31300
H3033       H  0.70207911  0.19285611  0.45261560     0.38900
H3034       H  0.71707560  0.28746646  0.54781568     0.30800
H3035       H  0.65862448  0.28421956  0.47014266     0.30800
H3036       H  0.65357327  0.22862632  0.54505343     0.31100
Zr3037     Zr  0.77081941  0.98625009  0.76184912     2.17500
O3038       O  0.79357337  0.97603505  0.78678716    -0.51300
O3039       O  0.76972076  0.95055804  0.75935374    -0.74500
O3040       O  0.75836772  0.99160568  0.79549554    -0.81300
O3041       O  0.80965819  0.99313248  0.72238555    -0.83000
O3042       O  0.72758797  0.00391565  0.79505966    -0.78600
O3043       O  0.80566018  0.98678978  0.75420745    -0.90300
O3044       O  0.74883305  0.94073868  0.73635731    -0.76200
O3045       O  0.73759196  0.97992267  0.75653397    -0.85700
O3046       O  0.76824852  0.97668202  0.72872023    -0.85400
O3047       O  0.75385991  0.01667810  0.76793369    -0.72200
O3048       O  0.78199790  0.01218076  0.74217899    -0.84300
Zr3049     Zr  0.72664828  0.02731418  0.71152266     2.26400
Zr3050     Zr  0.72044694  0.01028965  0.76214264     2.06300
Zr3051     Zr  0.77793887  0.00298890  0.70914580     2.10000
Zr3052     Zr  0.73520912  0.97040963  0.72347818     1.78800
O3053       O  0.80040435  0.02589818  0.69622664    -0.93100
O3054       O  0.70772866  0.95344910  0.73599688    -0.40900
O3055       O  0.74440365  0.99735377  0.70460325    -0.77500
O3056       O  0.71685642  0.99958059  0.72960346    -0.96200
O3057       O  0.73105008  0.03707234  0.74405703    -0.89500
O3058       O  0.76046368  0.03301363  0.71532016    -0.92400
C3059       C  0.76163780  0.93727536  0.74916774     1.01400
C3060       C  0.81637643  0.98852958  0.73911375     1.14300
C3061       C  0.74267446  0.99798638  0.80390117     1.05100
O3062       O  0.69687385  0.98901769  0.77580644    -0.94500
O3063       O  0.68824317  0.01919981  0.75116822    -0.90300
O3064       O  0.69151912  0.02627331  0.71948168    -0.83400
C3065       C  0.68114597  0.02338553  0.73466494     1.11700
O3066       O  0.79184242  0.04448104  0.77037505    -0.96500
Zr3067     Zr  0.76481765  0.04191512  0.74824977     1.88900
O3068       O  0.72778505  0.06330507  0.71503941    -0.73100
O3069       O  0.70934952  0.03893787  0.78017343    -0.52400
O3070       O  0.75678366  0.06128772  0.77685010    -0.97100
O3071       O  0.79095773  0.05985384  0.73421452    -0.54300
O3072       O  0.74997992  0.07129696  0.73760753    -0.73700
C3073       C  0.73674238  0.07570383  0.72565025     0.98700
O3074       O  0.70407369  0.03894693  0.68710668    -0.62500
O3075       O  0.78848917  0.97652498  0.68778475    -0.57300
O3076       O  0.73672890  0.02084593  0.67796112    -0.94000
O3077       O  0.76705444  0.00751419  0.67589574    -0.92400
O3078       O  0.74712990  0.94989556  0.69704214    -0.92700
O3079       O  0.71195051  0.96627092  0.69767251    -0.91500
C3080       C  0.75124039  0.01389785  0.66829549     1.17500
H3081       H  0.77639697  0.96543411  0.72598863     0.33500
H3082       H  0.70396185  0.99555057  0.72693225     0.44300
H3083       H  0.76449917  0.04300053  0.70673952     0.37800
H3084       H  0.75594588  0.02187484  0.78067703     0.34300
H3085       H  0.70775870  0.94104140  0.72870286     0.26100
H3086       H  0.69999019  0.03409588  0.78958741     0.32100
H3087       H  0.76232137  0.07408499  0.77450328     0.38000
H3088       H  0.76079189  0.94684536  0.70009896     0.32400
H3089       H  0.80036993  0.98114167  0.68170265     0.31300
H3090       H  0.80993744  0.01778492  0.68893031     0.33000
H3091       H  0.78543265  0.06611034  0.72265376     0.31900
H3092       H  0.71076297  0.97915117  0.69165020     0.35900
H3093       H  0.70084323  0.02756256  0.67904214     0.28700
H3094       H  0.78688635  0.96635345  0.79452040     0.32900
H3095       H  0.79498825  0.03098272  0.77408805     0.35800
H3096       H  0.79293950  0.96599275  0.69633856     0.28400
H3097       H  0.71157218  0.04734816  0.67864974     0.41200
H3098       H  0.69715650  0.97744942  0.76726563     0.31300
H3099       H  0.71154437  0.94976549  0.74920358     0.38900
H3100       H  0.80002631  0.04974758  0.72907476     0.30800
H3101       H  0.72057317  0.04266928  0.78803599     0.30800
H3102       H  0.79502293  0.98735333  0.79550767     0.31100
Zr3103     Zr  0.02794810  0.70677467  0.72954070     2.17500
O3104       O  0.05344644  0.68763937  0.71337243    -0.51300
O3105       O  0.02416908  0.71263327  0.69472890    -0.74500
O3106       O  0.01897175  0.67302163  0.72732609    -0.81300
O3107       O  0.06557314  0.73904336  0.75388661    -0.83000
O3108       O  0.98931319  0.66881910  0.74038844    -0.78600
O3109       O  0.06218986  0.71067119  0.73767746    -0.90300
O3110       O  0.99918452  0.73393554  0.69004885    -0.76200
O3111       O  0.99418191  0.71193091  0.72468275    -0.85700
O3112       O  0.02375089  0.74087175  0.72543603    -0.85400
O3113       O  0.01254840  0.69499245  0.75820237    -0.72200
O3114       O  0.03744503  0.72161132  0.75902062    -0.84300
Zr3115     Zr  0.98465364  0.75015199  0.77827492     2.26400
Zr3116     Zr  0.97867772  0.70067978  0.75322270     2.06300
Zr3117     Zr  0.03406323  0.75538208  0.75514719     2.10000
Zr3118     Zr  0.98980324  0.74610598  0.72126987     1.78800
O3119       O  0.05651299  0.77102494  0.77687200    -0.93100
O3120       O  0.95965448  0.73758100  0.70581399    -0.40900
O3121       O  0.00038654  0.76168262  0.75011146    -0.77500
O3122       O  0.97340535  0.73498940  0.74902187    -0.96200
O3123       O  0.98897717  0.71613948  0.78240667    -0.89500
O3124       O  0.01826183  0.74478252  0.78371955    -0.92400
C3125       C  0.01242445  0.72225713  0.68387379     1.01400
C3126       C  0.07248710  0.72301240  0.74684324     1.14300
C3127       C  0.00489296  0.66244102  0.73210149     1.05100
O3128       O  0.95471368  0.69083129  0.72975681    -0.94500
O3129       O  0.94741109  0.71053872  0.76712026    -0.90300
O3130       O  0.95133867  0.73995933  0.78148976    -0.83400
C3131       C  0.94101408  0.72548330  0.77666873     1.11700
O3132       O  0.04851358  0.68625883  0.78782003    -0.96500
Zr3133     Zr  0.02248831  0.71059040  0.78720813     1.88900
O3134       O  0.99041015  0.74630093  0.81264450    -0.73100
O3135       O  0.97049208  0.67649579  0.77685499    -0.52400
O3136       O  0.01088673  0.68177712  0.80285411    -0.97100
O3137       O  0.05113467  0.72055205  0.80455922    -0.54300
O3138       O  0.01007939  0.72009507  0.81801877    -0.73700
C3139       C  0.99911364  0.73412532  0.82365264     0.98700
O3140       O  0.95947280  0.77223641  0.79091613    -0.62500
O3141       O  0.04800327  0.77408593  0.72943660    -0.57300
O3142       O  0.99323558  0.78452137  0.77766396    -0.94000
O3143       O  0.02345237  0.78738987  0.76557391    -0.92400
O3144       O  0.00011526  0.77386773  0.70311522    -0.92700
O3145       O  0.96669034  0.77329145  0.72140081    -0.91500
C3146       C  0.00779640  0.79452524  0.77278008     1.17500
H3147       H  0.03106631  0.74515139  0.71455031     0.33500
H3148       H  0.95995892  0.73808687  0.74678695     0.44300
H3149       H  0.02269673  0.75190609  0.79484338     0.37800
H3150       H  0.01578617  0.68162147  0.76064562     0.34300
H3151       H  0.96082080  0.74206939  0.69240369     0.26100
H3152       H  0.97074533  0.68334446  0.78945791     0.32100
H3153       H  0.01064108  0.67161364  0.79269449     0.38000
H3154       H  0.01226405  0.76960745  0.69668492     0.32400
H3155       H  0.03682708  0.78060045  0.72318762     0.31300
H3156       H  0.05822019  0.76197600  0.78769311     0.33000
H3157       H  0.04683775  0.73171025  0.81271712     0.31900
H3158       H  0.96637514  0.77798732  0.73492997     0.35900
H3159       H  0.95651522  0.78147232  0.78048177     0.28700
H3160       H  0.04772944  0.68302979  0.70115433     0.32900
H3161       H  0.04889997  0.68147290  0.80118155     0.35800
H3162       H  0.05467957  0.78466626  0.73618909     0.28400
H3163       H  0.96560106  0.78000068  0.80118393     0.41200
H3164       H  0.95178541  0.67735623  0.73311227     0.31300
H3165       H  0.96028537  0.72328661  0.70472089     0.38900
H3166       H  0.05940637  0.72620959  0.79461774     0.30800
H3167       H  0.95671175  0.67393596  0.77461347     0.30800
H3168       H  0.05534583  0.67579901  0.72108992     0.31100
C3169       C  0.21876893  0.10259595  0.00287073    -0.05300
C3170       C  0.21384953  0.11220645  0.98561376    -0.02400
C3171       C  0.21541429  0.13248602  0.98422148     0.02600
C3172       C  0.22069980  0.14377077  0.00046902    -0.05300
C3173       C  0.22616159  0.13412099  0.01751278    -0.02400
C3174       C  0.22624761  0.11360363  0.01826748     0.02600
C3175       C  0.20682118  0.10117335  0.96925699     0.37300
C3176       C  0.23150400  0.14525809  0.03435554     0.37200
C3177       C  0.23433956  0.10371775  0.03470625     0.35700
C3178       C  0.21101816  0.14175048  0.96605977     0.35700
N3179       N  0.24130132  0.09545171  0.04739681    -0.39200
N3180       N  0.20765875  0.14898549  0.95147451    -0.39200
N3181       N  0.23536898  0.15412504  0.04797415    -0.38600
N3182       N  0.20106642  0.09237032  0.95630086    -0.38600
C3183       C  0.19396393  0.01478759  0.12603731    -0.05300
C3184       C  0.20529518  0.99861322  0.13194641    -0.02400
C3185       C  0.20969917  0.99602723  0.15176355     0.02600
C3186       C  0.20375325  0.01019275  0.16568996    -0.05300
C3187       C  0.19256329  0.02641493  0.15956128    -0.02400
C3188       C  0.18680510  0.02802620  0.14023270     0.02600
C3189       C  0.21253911  0.98475419  0.11769255     0.37300
C3190       C  0.18749635  0.04210267  0.17293501     0.37200
C3191       C  0.17268619  0.04302914  0.13516325     0.35700
C3192       C  0.21975813  0.97849511  0.15784196     0.35700
N3193       N  0.16121755  0.05483177  0.13134555    -0.39200
N3194       N  0.22763266  0.96444463  0.16279106    -0.39200
N3195       N  0.18357458  0.05469788  0.18349495    -0.38600
N3196       N  0.21834675  0.97368492  0.10630691    -0.38600
C3197       C  0.07749414  0.96829772  0.02647087    -0.05300
C3198       C  0.08668706  0.96563950  0.04445799    -0.02400
C3199       C  0.10691868  0.96810260  0.04628777     0.02600
C3200       C  0.11800082  0.97313589  0.03008467    -0.05300
C3201       C  0.10928581  0.97140162  0.01171337    -0.02400
C3202       C  0.08911197  0.96998275  0.00995098     0.02600
C3203       C  0.07534457  0.96060901  0.06105858     0.37300
C3204       C  0.12122256  0.97125469  0.99456799     0.37200
C3205       C  0.08022149  0.97091838  0.99108818     0.35700
C3206       C  0.11628720  0.96504318  0.06463576     0.35700
N3207       N  0.07306224  0.97180355  0.97608283    -0.39200
N3208       N  0.12379701  0.96212487  0.07921677    -0.39200
N3209       N  0.13086700  0.97096910  0.98097409    -0.38600
N3210       N  0.06638426  0.95652826  0.07436698    -0.38600
C3211       C  0.08715495  0.10457074  0.98572707    -0.05300
C3212       C  0.08370643  0.08465917  0.98817076    -0.02400
C3213       C  0.09916679  0.07119081  0.98667559     0.02600
C3214       C  0.11773369  0.07786737  0.98266646    -0.05300
C3215       C  0.11964177  0.09629271  0.97468375    -0.02400
C3216       C  0.10413550  0.10977234  0.97593360     0.02600
C3217       C  0.06514311  0.07820860  0.99477076     0.37300
C3218       C  0.13813295  0.10193388  0.96720482     0.37200
C3219       C  0.10668618  0.12927500  0.96912067     0.35700
C3220       C  0.09638468  0.05134829  0.99241703     0.35700
N3221       N  0.10888814  0.14479807  0.96365665    -0.39200
N3222       N  0.09373452  0.03568090  0.99720531    -0.39200
N3223       N  0.15281799  0.10656347  0.96118314    -0.38600
N3224       N  0.05069089  0.07260844  0.00044465    -0.38600
C3225       C  0.14203333  0.21992344  0.99502807    -0.05300
C3226       C  0.12907764  0.21112290  0.98225747    -0.02400
C3227       C  0.10902991  0.21154513  0.98623113     0.02600
C3228       C  0.10161649  0.21930856  0.00398627    -0.05300
C3229       C  0.11437317  0.23016065  0.01553674    -0.02400
C3230       C  0.13434168  0.23045343  0.01106405     0.02600
C3231       C  0.13639164  0.20094303  0.96525339     0.37300
C3232       C  0.10705049  0.24178476  0.03161130     0.37200
C3233       C  0.14688415  0.24209335  0.02286288     0.35700
C3234       C  0.09614611  0.20470232  0.97137922     0.35700
N3235       N  0.15660029  0.25149306  0.03247247    -0.39200
N3236       N  0.08607395  0.19955793  0.95919509    -0.39200
N3237       N  0.10138731  0.25134377  0.04431975    -0.38600
N3238       N  0.14211340  0.19270609  0.95171317    -0.38600
C3239       C  0.99794730  0.09748321  0.01261851    -0.05300
C3240       C  0.00366988  0.08517999  0.99715967    -0.02400
C3241       C  0.99876261  0.06541807  0.99690563     0.02600
C3242       C  0.98809552  0.05762326  0.01220637    -0.05300
C3243       C  0.98062601  0.07044246  0.02659417    -0.02400
C3244       C  0.98512263  0.09037275  0.02643364     0.02600
C3245       C  0.01505023  0.09289736  0.98169706     0.37300
C3246       C  0.96926247  0.06307666  0.04218964     0.37200
C3247       C  0.97686193  0.10363240  0.04066780     0.35700
C3248       C  0.00537818  0.05295259  0.98116487     0.35700
N3249       N  0.96993309  0.11447168  0.05163568    -0.39200
N3250       N  0.01069814  0.04316627  0.96849002    -0.39200
N3251       N  0.96025054  0.05751825  0.05486825    -0.38600
N3252       N  0.02409669  0.09908230  0.96934352    -0.38600
C3253       C  0.02568234  0.21876178  0.11434928    -0.05300
C3254       C  0.00659144  0.22592431  0.11640254    -0.02400
C3255       C  0.99859706  0.22985990  0.13492845     0.02600
C3256       C  0.00972164  0.22693432  0.15198069    -0.05300
C3257       C  0.02947619  0.22140932  0.14960962    -0.02400
C3258       C  0.03717960  0.21692909  0.13105559     0.02600
C3259       C  0.99472483  0.22802943  0.09933816     0.37300
C3260       C  0.04223371  0.22110570  0.16607322     0.37200
C3261       C  0.05691786  0.20971254  0.12900744     0.35700
C3262       C  0.97852134  0.23611838  0.13615728     0.35700
N3263       N  0.07260569  0.20397944  0.12688020    -0.39200
N3264       N  0.96251618  0.24120860  0.13700873    -0.39200
N3265       N  0.05256875  0.22129104  0.17911581    -0.38600
N3266       N  0.98531072  0.22966915  0.08568692    -0.38600
C3267       C  0.99448272  0.07319878  0.10998524    -0.05300
C3268       C  0.98379265  0.09061084  0.10850112    -0.02400
C3269       C  0.98926421  0.10397962  0.09465638     0.02600
C3270       C  0.00450419  0.09893099  0.08172310    -0.05300
C3271       C  0.00918544  0.07901248  0.07892084    -0.02400
C3272       C  0.00399671  0.06594262  0.09319829     0.02600
C3273       C  0.96833050  0.09517731  0.12197022     0.37300
C3274       C  0.01996567  0.07195049  0.06221480     0.37200
C3275       C  0.01072815  0.04589654  0.09168413     0.35700
C3276       C  0.97934428  0.12267181  0.09412245     0.35700
N3277       N  0.01661937  0.03010382  0.09039826    -0.39200
N3278       N  0.97086838  0.13731369  0.09385077    -0.39200
N3279       N  0.02841576  0.06610241  0.04889318    -0.38600
N3280       N  0.95582443  0.09879064  0.13255105    -0.38600
C3281       C  0.11728135  0.00158872  0.10329301    -0.05300
C3282       C  0.12373831  0.99707899  0.12196661    -0.02400
C3283       C  0.11045643  0.99735394  0.13735566     0.02600
C3284       C  0.09062773  0.00082805  0.13355877    -0.05300
C3285       C  0.08421179  0.99934173  0.11417477    -0.02400
C3286       C  0.09747146  0.00113179  0.09914301     0.02600
C3287       C  0.14396240  0.99311830  0.12556187     0.37300
C3288       C  0.06389138  0.99804123  0.10953406     0.37200
C3289       C  0.09061859  0.00426842  0.07964830     0.35700
C3290       C  0.11752962  0.99539340  0.15687853     0.35700
N3291       N  0.08511629  0.00709683  0.06419369    -0.39200
N3292       N  0.12346520  0.99379039  0.17235547    -0.39200
N3293       N  0.04774946  0.99729017  0.10556948    -0.38600
N3294       N  0.15993922  0.98923765  0.12871754    -0.38600
C3295       C  0.13031035  0.02982214  0.26773362    -0.05300
C3296       C  0.11446547  0.01759648  0.26928646    -0.02400
C3297       C  0.09600293  0.02452449  0.26382153     0.02600
C3298       C  0.09400437  0.04264295  0.25484747    -0.05300
C3299       C  0.10960065  0.05527239  0.25481683    -0.02400
C3300       C  0.12717708  0.04938565  0.26309629     0.02600
C3301       C  0.11741990  0.99741566  0.27418832     0.37300
C3302       C  0.10911063  0.07219908  0.24276313     0.37200
C3303       C  0.14262438  0.06290799  0.26542138     0.35700
C3304       C  0.07950865  0.01216377  0.26491817     0.35700
N3305       N  0.15489149  0.07367663  0.26774174    -0.39200
N3306       N  0.06617926  0.00253373  0.26571992    -0.39200
N3307       N  0.10925888  0.08519602  0.23246849    -0.38600
N3308       N  0.11967413  0.98122946  0.27785348    -0.38600
C3309       C  0.99813264  0.99609364  0.13067948    -0.05300
C3310       C  0.00790091  0.97970444  0.12277586    -0.02400
C3311       C  0.00605163  0.97520339  0.10304031     0.02600
C3312       C  0.99426214  0.98703077  0.09125620    -0.05300
C3313       C  0.98247176  0.00174786  0.09965193    -0.02400
C3314       C  0.98448416  0.00638343  0.11935288     0.02600
C3315       C  0.02098630  0.96843085  0.13473836     0.37300
C3316       C  0.96866925  0.01235876  0.08786450     0.37200
C3317       C  0.97364485  0.02273085  0.12758945     0.35700
C3318       C  0.01669510  0.95876358  0.09474464     0.35700
N3319       N  0.96487555  0.03576957  0.13401077    -0.39200
N3320       N  0.02509606  0.94558160  0.08814159    -0.39200
N3321       N  0.95757129  0.02057708  0.07835795    -0.38600
N3322       N  0.03137905  0.95945457  0.14435895    -0.38600
C3323       C  0.99074235  0.11812126  0.23253303    -0.05300
C3324       C  0.97243601  0.12447624  0.22572793    -0.02400
C3325       C  0.96704636  0.14428133  0.22656235     0.02600
C3326       C  0.97957689  0.15756575  0.23509554    -0.05300
C3327       C  0.99576761  0.15054011  0.24551121    -0.02400
C3328       C  0.00135593  0.13081350  0.24429657     0.02600
C3329       C  0.95944571  0.11066855  0.21729297     0.37300
C3330       C  0.00691297  0.16367926  0.25723140     0.37200
C3331       C  0.01849337  0.12406549  0.25440353     0.35700
C3332       C  0.94940641  0.15103747  0.21737831     0.35700
N3333       N  0.03205794  0.11893518  0.26279236    -0.39200
N3334       N  0.93533495  0.15637621  0.20999263    -0.39200
N3335       N  0.01577415  0.17405343  0.26669937    -0.38600
N3336       N  0.94898661  0.09964918  0.21071862    -0.38600
C3337       C  0.09712654  0.15544063  0.22476552    -0.05300
C3338       C  0.10163183  0.14089928  0.23833186    -0.02400
C3339       C  0.08756594  0.12724166  0.24278344     0.02600
C3340       C  0.07035745  0.12705637  0.23218191    -0.05300
C3341       C  0.06426410  0.14412666  0.22295235    -0.02400
C3342       C  0.07760017  0.15860487  0.21966409     0.02600
C3343       C  0.12062294  0.13929863  0.24684907     0.37300
C3344       C  0.04507905  0.14553831  0.21476126     0.37200
C3345       C  0.07160495  0.17623277  0.21014694     0.35700
C3346       C  0.09025581  0.11376395  0.25832629     0.35700
N3347       N  0.06704273  0.19049460  0.20273511    -0.39200
N3348       N  0.09207343  0.10326857  0.27107288    -0.39200
N3349       N  0.02979193  0.14656539  0.20816057    -0.38600
N3350       N  0.13577003  0.13806132  0.25374838    -0.38600
C3351       C  0.19537258  0.15104312  0.09997347    -0.05300
C3352       C  0.20972892  0.13638175  0.10181875    -0.02400
C3353       C  0.21295877  0.12305610  0.08666569     0.02600
C3354       C  0.20058914  0.12336067  0.07036388    -0.05300
C3355       C  0.19015127  0.14069298  0.06659891    -0.02400
C3356       C  0.18778307  0.15474689  0.08135592     0.02600
C3357       C  0.22124831  0.13484654  0.11919002     0.37300
C3358       C  0.18193803  0.14427792  0.04776097     0.37200
C3359       C  0.17739501  0.17266542  0.07720255     0.35700
C3360       C  0.22869556  0.10890536  0.08836947     0.35700
N3361       N  0.16946804  0.18711811  0.07367451    -0.39200
N3362       N  0.24147259  0.09796632  0.09019580    -0.39200
N3363       N  0.17551528  0.14772739  0.03279146    -0.38600
N3364       N  0.23070160  0.13331935  0.13282460    -0.38600
C3365       C  0.10420794  0.22714196  0.08566221    -0.05300
C3366       C  0.09663621  0.24034104  0.09963521    -0.02400
C3367       C  0.10927358  0.24950204  0.11253687     0.02600
C3368       C  0.12931556  0.24569247  0.11101314    -0.05300
C3369       C  0.13641366  0.23796176  0.09328744    -0.02400
C3370       C  0.12400118  0.22751038  0.08126113     0.02600
C3371       C  0.07607037  0.24413303  0.10119042     0.37300
C3372       C  0.15655806  0.23941682  0.08810537     0.37200
C3373       C  0.13163670  0.21659614  0.06485302     0.35700
C3374       C  0.10165959  0.26229365  0.12757070     0.35700
N3375       N  0.13761992  0.20778780  0.05177743    -0.39200
N3376       N  0.09542459  0.27262899  0.13940056    -0.39200
N3377       N  0.17256707  0.24057903  0.08374420    -0.38600
N3378       N  0.05972669  0.24769653  0.10235713    -0.38600
C3379       C  0.22363822  0.22369084  0.11543219    -0.05300
C3380       C  0.23442862  0.20835659  0.10668377    -0.02400
C3381       C  0.23945825  0.20926216  0.08705190     0.02600
C3382       C  0.23323660  0.22526957  0.07610320    -0.05300
C3383       C  0.22457919  0.24156524  0.08546508    -0.02400
C3384       C  0.22003919  0.24084616  0.10520018     0.02600
C3385       C  0.23851373  0.19085903  0.11737926     0.37300
C3386       C  0.21945536  0.25873200  0.07469483     0.37200
C3387       C  0.20983679  0.25696144  0.11464119     0.35700
C3388       C  0.25028300  0.19342729  0.07793268     0.35700
N3389       N  0.20165824  0.26967525  0.12234228    -0.39200
N3390       N  0.25919229  0.18091602  0.07073213    -0.39200
N3391       N  0.21528236  0.27263943  0.06643838    -0.38600
N3392       N  0.24167433  0.17692193  0.12598550    -0.38600
C3393       C  0.18965417  0.08459315  0.23434501    -0.05300
C3394       C  0.17145679  0.08875687  0.22555683    -0.02400
C3395       C  0.16609046  0.10786389  0.22056601     0.02600
C3396       C  0.17870953  0.12310260  0.22392145    -0.05300
C3397       C  0.19622953  0.11949274  0.23348768    -0.02400
C3398       C  0.20175555  0.10041588  0.23872089     0.02600
C3399       C  0.15804535  0.07362724  0.22110812     0.37300
C3400       C  0.20896765  0.13541464  0.23712765     0.37200
C3401       C  0.22047491  0.09729265  0.24759030     0.35700
C3402       C  0.14772266  0.11187705  0.21114416     0.35700
N3403       N  0.23542426  0.09494944  0.25468501    -0.39200
N3404       N  0.13313290  0.11519537  0.20366085    -0.39200
N3405       N  0.21904554  0.14817330  0.24004026    -0.38600
N3406       N  0.14711189  0.06187132  0.21724739    -0.38600
C3407       C  0.06609966  0.23986682  0.23692566    -0.05300
C3408       C  0.07894891  0.25445131  0.23158748    -0.02400
C3409       C  0.09890405  0.25024361  0.23069578     0.02600
C3410       C  0.10608151  0.23120888  0.23366911    -0.05300
C3411       C  0.09401504  0.21795617  0.24252474    -0.02400
C3412       C  0.07399661  0.22200491  0.24372589     0.02600
C3413       C  0.07186157  0.27322786  0.22518827     0.37300
C3414       C  0.10212540  0.20026635  0.25050069     0.37200
C3415       C  0.06173109  0.20734717  0.25141467     0.35700
C3416       C  0.11216691  0.26527838  0.22582602     0.35700
N3417       N  0.05233228  0.19527114  0.25742048    -0.39200
N3418       N  0.12282583  0.27722549  0.22207194    -0.39200
N3419       N  0.10855635  0.18641843  0.25746789    -0.38600
N3420       N  0.06640854  0.28821434  0.21991358    -0.38600
C3421       C  0.86188395  0.46388344  0.21778364    -0.05300
C3422       C  0.84897131  0.44955130  0.21189569    -0.02400
C3423       C  0.82890156  0.45332573  0.21322298     0.02600
C3424       C  0.82193527  0.47200647  0.21857756    -0.05300
C3425       C  0.83489251  0.48731567  0.21970540    -0.02400
C3426       C  0.85489209  0.48330046  0.21886963     0.02600
C3427       C  0.85645611  0.43145581  0.20379180     0.37300
C3428       C  0.82770212  0.50703586  0.22272556     0.37200
C3429       C  0.86823540  0.49904916  0.21959109     0.35700
C3430       C  0.81548059  0.43802053  0.20962569     0.35700
N3431       N  0.87884933  0.51165193  0.22001415    -0.39200
N3432       N  0.80465383  0.42586114  0.20690412    -0.39200
N3433       N  0.82197959  0.52276315  0.22518528    -0.38600
N3434       N  0.86286678  0.41736374  0.19687896    -0.38600
C3435       C  0.95745757  0.37403082  0.24161703    -0.05300
C3436       C  0.97645001  0.36943466  0.24780384    -0.02400
C3437       C  0.98389532  0.35030324  0.24589352     0.02600
C3438       C  0.97271411  0.33620742  0.23667353    -0.05300
C3439       C  0.95592257  0.34208583  0.22662081    -0.02400
C3440       C  0.94796128  0.36082246  0.22948096     0.02600
C3441       C  0.98815151  0.38435520  0.25630464     0.37300
C3442       C  0.94648375  0.32852069  0.21385959     0.37200
C3443       C  0.92930272  0.36567705  0.22121762     0.35700
C3444       C  0.00231408  0.34504018  0.25446821     0.35700
N3445       N  0.91439506  0.36925294  0.21450834    -0.39200
N3446       N  0.01706429  0.34106900  0.26133521    -0.39200
N3447       N  0.93911309  0.31768875  0.20359755    -0.38600
N3448       N  0.99768528  0.39629083  0.26272672    -0.38600
C3449       C  0.95742998  0.49056631  0.34132704    -0.05300
C3450       C  0.97234230  0.47940274  0.34987104    -0.02400
C3451       C  0.97624007  0.48172557  0.36966693     0.02600
C3452       C  0.96532594  0.49530649  0.38081023    -0.05300
C3453       C  0.95246822  0.50839482  0.37154697    -0.02400
C3454       C  0.94885763  0.50622515  0.35172128     0.02600
C3455       C  0.98273423  0.46465694  0.33865389     0.37300
C3456       C  0.94184266  0.52317863  0.38252375     0.37200
C3457       C  0.93548459  0.51940294  0.34208398     0.35700
C3458       C  0.99129683  0.46999695  0.37859329     0.35700
N3459       N  0.92494566  0.52994763  0.33430381    -0.39200
N3460       N  0.00341212  0.46067771  0.38561352    -0.39200
N3461       N  0.93318822  0.53498596  0.39108545    -0.38600
N3462       N  0.99113338  0.45298760  0.32967177    -0.38600
C3463       C  0.93141200  0.37099975  0.38838491    -0.05300
C3464       C  0.92466437  0.38994867  0.39294448    -0.02400
C3465       C  0.92770426  0.40518965  0.38006900     0.02600
C3466       C  0.93784877  0.40157450  0.36260427    -0.05300
C3467       C  0.94839702  0.38355929  0.36075128    -0.02400
C3468       C  0.94453953  0.36813598  0.37316556     0.02600
C3469       C  0.91434431  0.39364885  0.41087160     0.37300
C3470       C  0.96292828  0.38039418  0.34592500     0.37200
C3471       C  0.95308837  0.34904705  0.36944301     0.35700
C3472       C  0.92026188  0.42433620  0.38511562     0.35700
N3473       N  0.95996888  0.33387408  0.36636924    -0.39200
N3474       N  0.91424456  0.43940249  0.38991139    -0.39200
N3475       N  0.97453922  0.37770968  0.33415749    -0.38600
N3476       N  0.90630673  0.39666138  0.42524627    -0.38600
C3477       C  0.83999702  0.25314045  0.48934882    -0.05300
C3478       C  0.83143076  0.26379472  0.50480317    -0.02400
C3479       C  0.81133380  0.26294419  0.50836982     0.02600
C3480       C  0.79954468  0.25161806  0.49627917    -0.05300
C3481       C  0.80866058  0.23876519  0.48287419    -0.02400
C3482       C  0.82880058  0.23932449  0.47968620     0.02600
C3483       C  0.84291045  0.27747857  0.51545801     0.37300
C3484       C  0.79738631  0.22535598  0.47175052     0.37200
C3485       C  0.83770601  0.22746070  0.46456170     0.35700
C3486       C  0.80256221  0.27525636  0.52321453     0.35700
N3487       N  0.84485695  0.21812896  0.45243199    -0.39200
N3488       N  0.79553729  0.28521114  0.53493362    -0.39200
N3489       N  0.78891048  0.21446748  0.46252602    -0.38600
N3490       N  0.85201981  0.28846187  0.52393918    -0.38600
C3491       C  0.94090288  0.28895078  0.36092606    -0.05300
C3492       C  0.92894889  0.29117573  0.34453232    -0.02400
C3493       C  0.93553237  0.28553271  0.32602804     0.02600
C3494       C  0.95485351  0.27909791  0.32306087    -0.05300
C3495       C  0.96749516  0.27899835  0.33921006    -0.02400
C3496       C  0.96040428  0.28327640  0.35807551     0.02600
C3497       C  0.90954414  0.29927082  0.34651914     0.37300
C3498       C  0.98791692  0.27491756  0.33653310     0.37200
C3499       C  0.97298809  0.28101017  0.37457164     0.35700
C3500       C  0.92175174  0.28506010  0.31035922     0.35700
N3501       N  0.98304163  0.27909241  0.38773034    -0.39200
N3502       N  0.91075925  0.28436825  0.29789240    -0.39200
N3503       N  0.00428945  0.27192165  0.33457650    -0.38600
N3504       N  0.89402731  0.30571648  0.34752609    -0.38600
C3505       C  0.95979096  0.40743710  0.46976363    -0.05300
C3506       C  0.95035224  0.39764028  0.48460504    -0.02400
C3507       C  0.94508648  0.37814513  0.48194204     0.02600
C3508       C  0.94825902  0.36839441  0.46398506    -0.05300
C3509       C  0.95970513  0.37752240  0.45006421    -0.02400
C3510       C  0.96545462  0.39682756  0.45299640     0.02600
C3511       C  0.94485338  0.40789310  0.50221574     0.37300
C3512       C  0.96530623  0.36749463  0.43237144     0.37200
C3513       C  0.97734553  0.40572746  0.43860233     0.35700
C3514       C  0.93624542  0.36823286  0.49782912     0.35700
N3515       N  0.98689936  0.41260590  0.42704899    -0.39200
N3516       N  0.92924092  0.36042724  0.51057200    -0.39200
N3517       N  0.97011773  0.35966637  0.41826881    -0.38600
N3518       N  0.94031585  0.41597977  0.51626645    -0.38600
C3519       C  0.80939579  0.24061440  0.37566381    -0.05300
C3520       C  0.80176893  0.24499431  0.39421237    -0.02400
C3521       C  0.81441128  0.24593689  0.40992920     0.02600
C3522       C  0.83424134  0.24238561  0.40661150    -0.05300
C3523       C  0.83947624  0.23048906  0.39060825    -0.02400
C3524       C  0.82700000  0.22992260  0.37464772     0.02600
C3525       C  0.78199299  0.25176036  0.39676200     0.37300
C3526       C  0.85807644  0.22045936  0.38989240     0.37200
C3527       C  0.83303924  0.22011601  0.35699670     0.35700
C3528       C  0.80747152  0.25351342  0.42831755     0.35700
N3529       N  0.83789316  0.21224840  0.34292648    -0.39200
N3530       N  0.80182010  0.26003864  0.44273630    -0.39200
N3531       N  0.87284048  0.21227236  0.38923851    -0.38600
N3532       N  0.76653726  0.25784472  0.39943666    -0.38600
C3533       C  0.84792114  0.33856105  0.25716728    -0.05300
C3534       C  0.84171945  0.35184150  0.24307516    -0.02400
C3535       C  0.85386228  0.36691084  0.23786501     0.02600
C3536       C  0.87294769  0.36722750  0.24484800    -0.05300
C3537       C  0.88046122  0.35074345  0.25440649    -0.02400
C3538       C  0.86776362  0.33684063  0.26127481     0.02600
C3539       C  0.82253258  0.35101840  0.23496232     0.37300
C3540       C  0.90053080  0.35000618  0.26025202     0.37200
C3541       C  0.87483848  0.32120340  0.27320476     0.35700
C3542       C  0.84537176  0.38372565  0.22867833     0.35700
N3543       N  0.88017965  0.30858826  0.28274664    -0.39200
N3544       N  0.83759089  0.39695353  0.22189200    -0.39200
N3545       N  0.91648433  0.34942529  0.26507966    -0.38600
N3546       N  0.80746658  0.35035236  0.22791846    -0.38600
C3547       C  0.72437806  0.26340853  0.36822589    -0.05300
C3548       C  0.71067475  0.27679751  0.37616165    -0.02400
C3549       C  0.70482184  0.27540436  0.39569150     0.02600
C3550       C  0.71288862  0.26076943  0.40745276    -0.05300
C3551       C  0.72398159  0.24564289  0.39855984    -0.02400
C3552       C  0.72961050  0.24693313  0.37900980     0.02600
C3553       C  0.70367776  0.29274816  0.36455186     0.37300
C3554       C  0.73014382  0.22896251  0.40961150     0.37200
C3555       C  0.74216182  0.23207277  0.37038940     0.35700
C3556       C  0.69136333  0.28958199  0.40399166     0.35700
N3557       N  0.75221670  0.22023228  0.36354913    -0.39200
N3558       N  0.68051010  0.30073834  0.41074413    -0.39200
N3559       N  0.73508844  0.21545238  0.41813564    -0.38600
N3560       N  0.69805414  0.30538802  0.35515392    -0.38600
C3561       C  0.76272565  0.40600939  0.24494588    -0.05300
C3562       C  0.75073868  0.39022154  0.24003891    -0.02400
C3563       C  0.75632675  0.37105181  0.24480898     0.02600
C3564       C  0.77344446  0.36732793  0.25502567    -0.05300
C3565       C  0.78592705  0.38264271  0.25895412    -0.02400
C3566       C  0.78105030  0.40167700  0.25318637     0.02600
C3567       C  0.73208664  0.39332499  0.23102151     0.37300
C3568       C  0.80327171  0.37904474  0.27014366     0.37200
C3569       C  0.79518077  0.41658172  0.25561987     0.35700
C3570       C  0.74364646  0.35515654  0.24072230     0.35700
N3571       N  0.80667074  0.42826973  0.25741323    -0.39200
N3572       N  0.73366539  0.34235602  0.23764793    -0.39200
N3573       N  0.81704164  0.37630521  0.27918588    -0.38600
N3574       N  0.71716882  0.39538582  0.22379049    -0.38600
C3575       C  0.84646080  0.25853919  0.25502636    -0.05300
C3576       C  0.85756276  0.27138795  0.24416233    -0.02400
C3577       C  0.87758550  0.26769869  0.24142850     0.02600
C3578       C  0.88690762  0.25121929  0.24958716    -0.05300
C3579       C  0.87525950  0.23701715  0.25782092    -0.02400
C3580       C  0.85516107  0.24043958  0.26000517     0.02600
C3581       C  0.84872272  0.28859769  0.23588308     0.37300
C3582       C  0.88385691  0.21923797  0.26515866     0.37200
C3583       C  0.84349407  0.22535978  0.26793673     0.35700
C3584       C  0.88851271  0.28082245  0.22983934     0.35700
N3585       N  0.83425309  0.21333344  0.27430658    -0.39200
N3586       N  0.89710020  0.29125241  0.22044319    -0.39200
N3587       N  0.89034691  0.20493834  0.27114024    -0.38600
N3588       N  0.84194054  0.30223745  0.22882576    -0.38600
C3589       C  0.82176825  0.47528604  0.36093501    -0.05300
C3590       C  0.83569390  0.48952617  0.36351761    -0.02400
C3591       C  0.84885823  0.49281006  0.34858461     0.02600
C3592       C  0.84720802  0.48265537  0.33094856    -0.05300
C3593       C  0.83068834  0.47178476  0.32722717    -0.02400
C3594       C  0.81804594  0.46790137  0.34233128     0.02600
C3595       C  0.83746146  0.49954115  0.38186886     0.37300
C3596       C  0.82817634  0.46212258  0.30880113     0.37200
C3597       C  0.80208668  0.45510138  0.33905999     0.35700
C3598       C  0.86508388  0.50515141  0.35189438     0.35700
N3599       N  0.78948284  0.44481588  0.33632944    -0.39200
N3600       N  0.87807544  0.51493593  0.35462799    -0.39200
N3601       N  0.82597615  0.45407880  0.29431204    -0.38600
N3602       N  0.83871976  0.50762743  0.39648923    -0.38600
C3603       C  0.80913688  0.36815788  0.48602994    -0.05300
C3604       C  0.82462179  0.37027300  0.49918207    -0.02400
C3605       C  0.83526948  0.35359974  0.50477649     0.02600
C3606       C  0.83111502  0.33578326  0.49593530    -0.05300
C3607       C  0.81195506  0.33314065  0.49045758    -0.02400
C3608       C  0.80125554  0.34932167  0.48403810     0.02600
C3609       C  0.83025677  0.38907932  0.50623448     0.37300
C3610       C  0.80490682  0.31379004  0.48743699     0.37200
C3611       C  0.78371924  0.34575615  0.47339571     0.35700
C3612       C  0.85167955  0.35481624  0.51756317     0.35700
N3613       N  0.77018421  0.34237100  0.46440117    -0.39200
N3614       N  0.86474783  0.35558650  0.52785219    -0.39200
N3615       N  0.79891061  0.29859987  0.48449880    -0.38600
N3616       N  0.83495414  0.40394235  0.51215473    -0.38600
C3617       C  0.72344965  0.36769897  0.39655380    -0.05300
C3618       C  0.72738193  0.34864150  0.40277119    -0.02400
C3619       C  0.73036822  0.33390464  0.38894334     0.02600
C3620       C  0.72887026  0.33860609  0.36920474    -0.05300
C3621       C  0.71772163  0.35533586  0.36433801    -0.02400
C3622       C  0.71479571  0.37001690  0.37835767     0.02600
C3623       C  0.73132145  0.34472461  0.42282711     0.37300
C3624       C  0.71027101  0.35803993  0.34504820     0.37200
C3625       C  0.70425386  0.38775078  0.37375541     0.35700
C3626       C  0.73702618  0.31490270  0.39517200     0.35700
N3627       N  0.69568627  0.40184714  0.37016031    -0.39200
N3628       N  0.74262038  0.30000182  0.40054129    -0.39200
N3629       N  0.70414772  0.36036683  0.32973954    -0.38600
N3630       N  0.73501459  0.34123185  0.43863628    -0.38600
C3631       C  0.73062377  0.37760462  0.48080685    -0.05300
C3632       C  0.74186297  0.36699612  0.49419072    -0.02400
C3633       C  0.73946081  0.34686993  0.49618532     0.02600
C3634       C  0.72517871  0.33743800  0.48545218    -0.05300
C3635       C  0.71165219  0.34873453  0.47495739    -0.02400
C3636       C  0.71468262  0.36864319  0.47217410     0.02600
C3637       C  0.75718480  0.37651461  0.50445809     0.37300
C3638       C  0.69513929  0.33963846  0.46624553     0.37200
C3639       C  0.70252722  0.37941218  0.45889263     0.35700
C3640       C  0.75222054  0.33570389  0.50860053     0.35700
N3641       N  0.69275467  0.38778564  0.44818066    -0.39200
N3642       N  0.76250696  0.32671506  0.51832521    -0.39200
N3643       N  0.68193591  0.33232329  0.45944788    -0.38600
N3644       N  0.76937833  0.38413508  0.51268708    -0.38600
C3645       C  0.74886517  0.48416842  0.36163412    -0.05300
C3646       C  0.76246343  0.49234065  0.34921047    -0.02400
C3647       C  0.75956518  0.49184257  0.32895848     0.02600
C3648       C  0.74333094  0.48267963  0.32091979    -0.05300
C3649       C  0.72864965  0.47690315  0.33354429    -0.02400
C3650       C  0.73089482  0.47900403  0.35362432     0.02600
C3651       C  0.77881966  0.50220989  0.35711878     0.37300
C3652       C  0.71158228  0.46769158  0.32618790     0.37200
C3653       C  0.71473919  0.47528362  0.36621147     0.35700
C3654       C  0.77280728  0.50159833  0.31647541     0.35700
N3655       N  0.70182014  0.47241820  0.37620110    -0.39200
N3656       N  0.78314478  0.50964252  0.30648777    -0.39200
N3657       N  0.69794081  0.46008940  0.32075978    -0.38600
N3658       N  0.79166823  0.51073245  0.36308509    -0.38600
C3659       C  0.85177738  0.48019852  0.44170190    -0.05300
C3660       C  0.86622923  0.47665499  0.42765094    -0.02400
C3661       C  0.88564815  0.48118155  0.43149007     0.02600
C3662       C  0.89133604  0.48738882  0.45014268    -0.05300
C3663       C  0.87651669  0.49205450  0.46380908    -0.02400
C3664       C  0.85695118  0.48875133  0.45940776     0.02600
C3665       C  0.86150641  0.46699115  0.40969829     0.37300
C3666       C  0.88101478  0.49975049  0.48275397     0.37200
C3667       C  0.84203262  0.49335251  0.47353533     0.35700
C3668       C  0.89954152  0.48037809  0.41588211     0.35700
N3669       N  0.83012096  0.49705198  0.48475826    -0.39200
N3670       N  0.91061370  0.48028648  0.40342442    -0.39200
N3671       N  0.88416184  0.50603332  0.49791770    -0.38600
N3672       N  0.85810546  0.45910025  0.39536159    -0.38600
C3673       C  0.72189674  0.73751807  0.11697285    -0.05300
C3674       C  0.73517783  0.72654720  0.10559972    -0.02400
C3675       C  0.73655686  0.72973354  0.08559054     0.02600
C3676       C  0.72545819  0.74473150  0.07702889    -0.05300
C3677       C  0.71476703  0.75778375  0.08900407    -0.02400
C3678       C  0.71273434  0.75399892  0.10887162     0.02600
C3679       C  0.74649173  0.71113629  0.11446852     0.37300
C3680       C  0.70487321  0.77438971  0.08060367     0.37200
C3681       C  0.70005934  0.76619971  0.12070216     0.35700
C3682       C  0.74893712  0.71719466  0.07375002     0.35700
N3683       N  0.68998257  0.77603256  0.13011226    -0.39200
N3684       N  0.75870386  0.70705033  0.06433408    -0.39200
N3685       N  0.69704323  0.78759267  0.07374810    -0.38600
N3686       N  0.75562697  0.69899740  0.12168298    -0.38600
C3687       C  0.68856803  0.62164533  0.22766107    -0.05300
C3688       C  0.70743486  0.61795438  0.23432585    -0.02400
C3689       C  0.71515221  0.59881006  0.23491301     0.02600
C3690       C  0.70365751  0.58279942  0.22960785    -0.05300
C3691       C  0.68395192  0.58654666  0.22525092    -0.02400
C3692       C  0.67662413  0.60581899  0.22385071     0.02600
C3693       C  0.71949410  0.63421862  0.23890815     0.37300
C3694       C  0.67105686  0.57066888  0.22207220     0.37200
C3695       C  0.65719551  0.60931956  0.21678706     0.35700
C3696       C  0.73539552  0.59612786  0.23969050     0.35700
N3697       N  0.64170927  0.61182585  0.21100376    -0.39200
N3698       N  0.75156868  0.59440668  0.24353049    -0.39200
N3699       N  0.66063927  0.55809593  0.21964058    -0.38600
N3700       N  0.72902260  0.64724485  0.24250692    -0.38600
C3701       C  0.60201891  0.72104482  0.22550193    -0.05300
C3702       C  0.59311364  0.70837083  0.23841850    -0.02400
C3703       C  0.57289663  0.70976240  0.24153600     0.02600
C3704       C  0.56165800  0.72449437  0.23267867    -0.05300
C3705       C  0.57090786  0.73850828  0.22174853    -0.02400
C3706       C  0.59095855  0.73718106  0.21869929     0.02600
C3707       C  0.60467237  0.69443841  0.24906949     0.37300
C3708       C  0.55961738  0.75397319  0.21284771     0.37200
C3709       C  0.60017553  0.75280821  0.20878005     0.35700
C3710       C  0.56359475  0.69580284  0.25351423     0.35700
N3711       N  0.60734376  0.76537876  0.20091478    -0.39200
N3712       N  0.55616360  0.68453287  0.26293825    -0.39200
N3713       N  0.55066512  0.76616243  0.20549982    -0.38600
N3714       N  0.61393822  0.68367524  0.25801134    -0.38600
C3715       C  0.62002754  0.75861076  0.08097493    -0.05300
C3716       C  0.63923079  0.75324646  0.07645403    -0.02400
C3717       C  0.65166133  0.74812715  0.09157198     0.02600
C3718       C  0.64531977  0.75122465  0.11084378    -0.05300
C3719       C  0.62962150  0.76447285  0.11401268    -0.02400
C3720       C  0.61662202  0.76799578  0.09883400     0.02600
C3721       C  0.64513827  0.74998508  0.05662693     0.37300
C3722       C  0.62600269  0.77331561  0.13274801     0.37200
C3723       C  0.59904685  0.77939072  0.10206405     0.35700
C3724       C  0.66940392  0.73747290  0.08701901     0.35700
N3725       N  0.58498509  0.78843934  0.10467900    -0.39200
N3726       N  0.68308685  0.72837752  0.08297416    -0.39200
N3727       N  0.62306095  0.78057780  0.14760871    -0.38600
N3728       N  0.65016413  0.74715912  0.04094165    -0.38600
C3729       C  0.61046647  0.75718997  0.99908454    -0.05300
C3730       C  0.62084101  0.74821696  0.98371517    -0.02400
C3731       C  0.64076757  0.75144633  0.98126657     0.02600
C3732       C  0.65048809  0.76418097  0.99377335    -0.05300
C3733       C  0.63949921  0.77534822  0.00724056    -0.02400
C3734       C  0.61966978  0.77166245  0.01007694     0.02600
C3735       C  0.61149533  0.73385861  0.97182562     0.37300
C3736       C  0.64898523  0.78926147  0.01951945     0.37200
C3737       C  0.60938015  0.78087332  0.02607369     0.35700
C3738       C  0.65153062  0.74075582  0.96652724     0.35700
N3739       N  0.60121835  0.78803942  0.03896059    -0.39200
N3740       N  0.66004156  0.73212402  0.95477169    -0.39200
N3741       N  0.65649428  0.80033802  0.02941045    -0.38600
N3742       N  0.60409332  0.72236931  0.96233343    -0.38600
C3743       C  0.50746768  0.72671143  0.12043532    -0.05300
C3744       C  0.48965325  0.73645501  0.12399439    -0.02400
C3745       C  0.48411172  0.74171740  0.14317963     0.02600
C3746       C  0.49669772  0.73777187  0.15884914    -0.05300
C3747       C  0.51460947  0.72812966  0.15498553    -0.02400
C3748       C  0.51946403  0.72194761  0.13621399     0.02600
C3749       C  0.47707309  0.74086084  0.10793955     0.37300
C3750       C  0.52849904  0.72464381  0.17032831     0.37200
C3751       C  0.53677632  0.70995420  0.13337683     0.35700
C3752       C  0.46530565  0.75063173  0.14674344     0.35700
N3753       N  0.55050832  0.70019690  0.13175331    -0.39200
N3754       N  0.45022321  0.75770417  0.14946225    -0.39200
N3755       N  0.53965000  0.72168704  0.18238685    -0.38600
N3756       N  0.46707368  0.74421439  0.09501612    -0.38600
C3757       C  0.50366703  0.63493316  0.02496302    -0.05300
C3758       C  0.49540391  0.62327153  0.03913513    -0.02400
C3759       C  0.49259173  0.60319930  0.03546974     0.02600
C3760       C  0.49753169  0.59454928  0.01732856    -0.05300
C3761       C  0.50331209  0.60699812  0.00246674    -0.02400
C3762       C  0.50568527  0.62698115  0.00614077     0.02600
C3763       C  0.48889971  0.63201030  0.05712922     0.37300
C3764       C  0.50794853  0.59943128  0.98341018     0.37200
C3765       C  0.50979444  0.63957915  0.99020051     0.35700
C3766       C  0.48408949  0.59170291  0.05036050     0.35700
N3767       N  0.51274600  0.64943117  0.97726769    -0.39200
N3768       N  0.47717142  0.58283038  0.06241134    -0.39200
N3769       N  0.51186907  0.59407113  0.96801812    -0.38600
N3770       N  0.48301610  0.63892551  0.07128721    -0.38600
C3771       C  0.64413718  0.63779591  0.00360928    -0.05300
C3772       C  0.62864461  0.63432307  0.99064720    -0.02400
C3773       C  0.61666908  0.64993199  0.98485137     0.02600
C3774       C  0.61992095  0.66841603  0.99253835    -0.05300
C3775       C  0.63880895  0.67237459  0.99843067    -0.02400
C3776       C  0.65056209  0.65711791  0.00537682     0.02600
C3777       C  0.62437208  0.61504470  0.98370219     0.37300
C3778       C  0.64493758  0.69222521  0.99967406     0.37200
C3779       C  0.66830584  0.66175452  0.01519303     0.35700
C3780       C  0.60008622  0.64687257  0.97261758     0.35700
N3781       N  0.68235361  0.66558482  0.02316422    -0.39200
N3782       N  0.58686882  0.64443912  0.96282868    -0.39200
N3783       N  0.64967047  0.70811052  0.00068122    -0.38600
N3784       N  0.62073032  0.59976898  0.97801701    -0.38600
C3785       C  0.72726869  0.65232432  0.11373118    -0.05300
C3786       C  0.72779245  0.65927474  0.09460389    -0.02400
C3787       C  0.73582788  0.64734576  0.08003197     0.02600
C3788       C  0.74060952  0.62795229  0.08427181    -0.05300
C3789       C  0.74658709  0.62406157  0.10316754    -0.02400
C3790       C  0.73960173  0.63619359  0.11824474     0.02600
C3791       C  0.71869983  0.67757269  0.08922815     0.37300
C3792       C  0.75844834  0.60697811  0.10701962     0.37200
C3793       C  0.74472573  0.63162738  0.13792435     0.35700
C3794       C  0.73518707  0.65363765  0.06030049     0.35700
N3795       N  0.74901275  0.62792899  0.15357269    -0.39200
N3796       N  0.73397117  0.65921579  0.04476037    -0.39200
N3797       N  0.76808360  0.59342146  0.11003684    -0.38600
N3798       N  0.71110724  0.69186136  0.08456049    -0.38600
C3799       C  0.72397502  0.62692156  0.99562331    -0.05300
C3800       C  0.74192687  0.63312506  0.00229242    -0.02400
C3801       C  0.74543823  0.65308102  0.00413531     0.02600
C3802       C  0.73067480  0.66702789  0.99961541    -0.05300
C3803       C  0.71424298  0.66059049  0.98954723    -0.02400
C3804       C  0.71115556  0.64058035  0.98728719     0.02600
C3805       C  0.75583800  0.61894228  0.00950313     0.37300
C3806       C  0.70047303  0.67436271  0.98138408     0.37200
C3807       C  0.69380036  0.63393279  0.97800504     0.35700
C3808       C  0.76373021  0.65895945  0.01213035     0.35700
N3809       N  0.67998539  0.62871695  0.97047163    -0.39200
N3810       N  0.77830970  0.66362418  0.01849918    -0.39200
N3811       N  0.68933476  0.68520829  0.97490487    -0.38600
N3812       N  0.76696585  0.60771461  0.01535004    -0.38600
C3813       C  0.72369100  0.50340664  0.14425659    -0.05300
C3814       C  0.70618700  0.49649430  0.13661442    -0.02400
C3815       C  0.70232044  0.49785197  0.11666668     0.02600
C3816       C  0.71570340  0.50653039  0.10447633    -0.05300
C3817       C  0.73454560  0.50926201  0.11140973    -0.02400
C3818       C  0.73833133  0.50866479  0.13127647     0.02600
C3819       C  0.69212625  0.48799359  0.14912459     0.37300
C3820       C  0.74985072  0.51361639  0.09803661     0.37200
C3821       C  0.75690666  0.51489754  0.13816016     0.35700
C3822       C  0.68481704  0.49011229  0.10871516     0.35700
N3823       N  0.77179759  0.51997653  0.14332151    -0.39200
N3824       N  0.67108075  0.48339135  0.10238041    -0.39200
N3825       N  0.76220127  0.51686563  0.08748101    -0.38600
N3826       N  0.68076986  0.48116119  0.15892588    -0.38600
C3827       C  0.60928854  0.52094421  0.03366034    -0.05300
C3828       C  0.60398856  0.51223896  0.01609294    -0.02400
C3829       C  0.58445155  0.50836664  0.01225826     0.02600
C3830       C  0.56994143  0.51300925  0.02620914    -0.05300
C3831       C  0.57568507  0.52027263  0.04443764    -0.02400
C3832       C  0.59504795  0.52492717  0.04781941     0.02600
C3833       C  0.61852647  0.50874967  0.00133504     0.37300
C3834       C  0.56167369  0.52340091  0.05975803     0.37200
C3835       C  0.59989357  0.53549091  0.06527950     0.35700
C3836       C  0.57942353  0.50082919  0.99338365     0.35700
N3837       N  0.60339965  0.54409657  0.07918371    -0.39200
N3838       N  0.57555671  0.49482358  0.97828511    -0.39200
N3839       N  0.55046499  0.52594784  0.07192477    -0.38600
N3840       N  0.63015150  0.50613641  0.98957157    -0.38600
C3841       C  0.51501842  0.64314563  0.10193535    -0.05300
C3842       C  0.51919008  0.62337589  0.09830846    -0.02400
C3843       C  0.51471971  0.60959755  0.11214949     0.02600
C3844       C  0.50602526  0.61559094  0.12985148    -0.05300
C3845       C  0.49982658  0.63509896  0.13238252    -0.02400
C3846       C  0.50414237  0.64882689  0.11830883     0.02600
C3847       C  0.52893366  0.61724233  0.08061120     0.37300
C3848       C  0.49009602  0.64127694  0.15000603     0.37200
C3849       C  0.49845769  0.66893546  0.12135533     0.35700
C3850       C  0.52143543  0.58976206  0.10876842     0.35700
N3851       N  0.49360243  0.68489652  0.12392016    -0.39200
N3852       N  0.52730548  0.57423649  0.10549492    -0.39200
N3853       N  0.48247745  0.64627186  0.16411341    -0.38600
N3854       N  0.53664567  0.61216549  0.06658056    -0.38600
C3855       C  0.60993340  0.51589523  0.13971886    -0.05300
C3856       C  0.62881890  0.51943210  0.14620372    -0.02400
C3857       C  0.64374082  0.52159427  0.13264845     0.02600
C3858       C  0.64020650  0.51817730  0.11290276    -0.05300
C3859       C  0.62303420  0.50927551  0.10753636    -0.02400
C3860       C  0.60721978  0.51032557  0.12026395     0.02600
C3861       C  0.63221317  0.52352508  0.16641915     0.37300
C3862       C  0.62110755  0.50071467  0.08850580     0.37200
C3863       C  0.58805950  0.50996114  0.11221710     0.35700
C3864       C  0.66220065  0.52885755  0.13868071     0.35700
N3865       N  0.57295235  0.51067997  0.10525233    -0.39200
N3866       N  0.67692061  0.53480982  0.14333270    -0.39200
N3867       N  0.61975527  0.49338221  0.07351111    -0.38600
N3868       N  0.63492035  0.52678927  0.18255426    -0.38600
C3869       C  0.57218280  0.63108319  0.23292637    -0.05300
C3870       C  0.56825797  0.64878012  0.22387869    -0.02400
C3871       C  0.58363780  0.65937612  0.21691800     0.02600
C3872       C  0.60266837  0.65379101  0.22201826    -0.05300
C3873       C  0.60553745  0.64033605  0.23697482    -0.02400
C3874       C  0.59003340  0.62891768  0.24253987     0.02600
C3875       C  0.54861446  0.65599614  0.22223654     0.37300
C3876       C  0.62426174  0.63761749  0.24593412     0.37200
C3877       C  0.59236180  0.61495599  0.25777866     0.35700
C3878       C  0.57990385  0.67551764  0.20421784     0.35700
N3879       N  0.59421024  0.60407772  0.27019966    -0.39200
N3880       N  0.57694064  0.68833613  0.19399912    -0.39200
N3881       N  0.63913537  0.63565611  0.25328528    -0.38600
N3882       N  0.53295121  0.66209274  0.22166917    -0.38600
C3883       C  0.64621375  0.50456362  0.23744740    -0.05300
C3884       C  0.63849742  0.49451686  0.22144969    -0.02400
C3885       C  0.61885759  0.49681744  0.21670261     0.02600
C3886       C  0.60682163  0.50927436  0.22796992    -0.05300
C3887       C  0.61376818  0.51584278  0.24610702    -0.02400
C3888       C  0.63357347  0.51402787  0.25057387     0.02600
C3889       C  0.65095702  0.48230603  0.20935811     0.37300
C3890       C  0.60060856  0.52496443  0.25994025     0.37200
C3891       C  0.64102085  0.52306186  0.26789076     0.35700
C3892       C  0.61157490  0.48722926  0.19960728     0.35700
N3893       N  0.64690072  0.53031497  0.28171664    -0.39200
N3894       N  0.60591695  0.47942212  0.18598863    -0.39200
N3895       N  0.59008936  0.53210529  0.27103078    -0.38600
N3896       N  0.66083076  0.47259400  0.19964125    -0.38600
C3897       C  0.48960460  0.61155935  0.23319735    -0.05300
C3898       C  0.49983705  0.61924724  0.24903625    -0.02400
C3899       C  0.49802268  0.63918997  0.25363074     0.02600
C3900       C  0.48586941  0.65135713  0.24256651    -0.05300
C3901       C  0.47421219  0.64329238  0.22808695    -0.02400
C3902       C  0.47588178  0.62343956  0.22359637     0.02600
C3903       C  0.51294907  0.60702183  0.26002921     0.37300
C3904       C  0.46058155  0.65545004  0.21759343     0.37200
C3905       C  0.46361879  0.61527258  0.20881392     0.35700
C3906       C  0.50955007  0.64744190  0.26891521     0.35700
N3907       N  0.45379534  0.60880735  0.19706292    -0.39200
N3908       N  0.51870589  0.65415801  0.28106722    -0.39200
N3909       N  0.44966824  0.66498869  0.20912209    -0.38600
N3910       N  0.52333168  0.59738243  0.26903215    -0.38600
C3911       C  0.50870308  0.49087689  0.09123270    -0.05300
C3912       C  0.49450990  0.49392299  0.10554886    -0.02400
C3913       C  0.49994942  0.49504916  0.12502078     0.02600
C3914       C  0.51967213  0.49379844  0.13017256    -0.05300
C3915       C  0.53296124  0.48633475  0.11649843    -0.02400
C3916       C  0.52775664  0.48571939  0.09677916     0.02600
C3917       C  0.47453744  0.49750809  0.10016324     0.37300
C3918       C  0.55172315  0.47937545  0.12284857     0.37200
C3919       C  0.54201924  0.48039989  0.08229541     0.35700
C3920       C  0.48549302  0.49945900  0.13965612     0.35700
N3921       N  0.55351285  0.47623384  0.07078383    -0.39200
N3922       N  0.47395594  0.50308166  0.15127947    -0.39200
N3923       N  0.56657069  0.47352316  0.12809822    -0.38600
N3924       N  0.45862931  0.50042207  0.09585841    -0.38600
C3925       C  0.02110454  0.60430353  0.71516657    -0.05300
C3926       C  0.00383837  0.61306773  0.70784294    -0.02400
C3927       C  0.99742622  0.63157885  0.71449777     0.02600
C3928       C  0.00793743  0.64131547  0.72870402    -0.05300
C3929       C  0.02318296  0.63137491  0.73817300    -0.02400
C3930       C  0.02951059  0.61276094  0.73174073     0.02600
C3931       C  0.99252007  0.60312750  0.69346484     0.37300
C3932       C  0.03265865  0.64058189  0.75433480     0.37200
C3933       C  0.04504173  0.60283772  0.74190521     0.35700
C3934       C  0.98068091  0.64113871  0.70600060     0.35700
N3935       N  0.05733403  0.59495060  0.75019577    -0.39200
N3936       N  0.96733404  0.64892835  0.69937382    -0.39200
N3937       N  0.04011532  0.64790193  0.76729621    -0.38600
N3938       N  0.98324896  0.59532694  0.68208470    -0.38600
C3939       C  0.11563103  0.50998418  0.72871901    -0.05300
C3940       C  0.12333579  0.49082296  0.72778815    -0.02400
C3941       C  0.14314444  0.48709353  0.73111307     0.02600
C3942       C  0.15532941  0.50253107  0.73603230    -0.05300
C3943       C  0.14659438  0.52062717  0.74128629    -0.02400
C3944       C  0.12671650  0.52427014  0.73781845     0.02600
C3945       C  0.11091900  0.47497211  0.72279233     0.37300
C3946       C  0.15798379  0.53550434  0.75029260     0.37200
C3947       C  0.11785839  0.54274568  0.74332198     0.35700
C3948       C  0.15082106  0.46749846  0.72841822     0.35700
N3949       N  0.11075311  0.55739883  0.74803929    -0.39200
N3950       N  0.15659318  0.45173344  0.72635960    -0.39200
N3951       N  0.16696704  0.54745463  0.75748141    -0.38600
N3952       N  0.10112477  0.46221711  0.71895118    -0.38600
C3953       C  0.01817164  0.50386867  0.59534079    -0.05300
C3954       C  0.99911350  0.49781214  0.59169573    -0.02400
C3955       C  0.99265199  0.49425351  0.57241074     0.02600
C3956       C  0.00529119  0.49607736  0.55653661    -0.05300
C3957       C  0.02421003  0.50178078  0.56014247    -0.02400
C3958       C  0.03037942  0.50619597  0.57894120     0.02600
C3959       C  0.98617581  0.49492420  0.60766865     0.37300
C3960       C  0.03776433  0.50302320  0.54419355     0.37200
C3961       C  0.04979875  0.51306743  0.58045311     0.35700
C3962       C  0.97278919  0.48953203  0.56886118     0.35700
N3963       N  0.06554522  0.51792593  0.57985856    -0.39200
N3964       N  0.95685263  0.48593787  0.56605157    -0.39200
N3965       N  0.04848715  0.50418069  0.53154859    -0.38600
N3966       N  0.97583080  0.49253168  0.62042544    -0.38600
C3967       C  0.99182596  0.59974460  0.57352067    -0.05300
C3968       C  0.98671079  0.59724854  0.59283078    -0.02400
C3969       C  0.99671914  0.58317391  0.60360537     0.02600
C3970       C  0.01324785  0.57347631  0.59553494    -0.05300
C3971       C  0.01476642  0.57250914  0.57527271    -0.02400
C3972       C  0.00246922  0.58460041  0.56422415     0.02600
C3973       C  0.97247005  0.61015312  0.60187070     0.37300
C3974       C  0.02971117  0.56086485  0.56582549     0.37200
C3975       C  0.00164753  0.58269821  0.54349434     0.35700
C3976       C  0.99033041  0.57910513  0.62296635     0.35700
N3977       N  0.00008946  0.58173614  0.52694935    -0.39200
N3978       N  0.98494621  0.57574571  0.63828934    -0.39200
N3979       N  0.04171910  0.55195067  0.55790502    -0.38600
N3980       N  0.96121523  0.62056575  0.60911160    -0.38600
C3981       C  0.01376343  0.71546777  0.62174271    -0.05300
C3982       C  0.02831691  0.72585495  0.63135613    -0.02400
C3983       C  0.02825531  0.72761321  0.65173010     0.02600
C3984       C  0.01342790  0.71950925  0.66262625    -0.05300
C3985       C  0.99796179  0.71085355  0.65299600    -0.02400
C3986       C  0.99771056  0.70959325  0.63272647     0.02600
C3987       C  0.04290093  0.73545389  0.62044237     0.37300
C3988       C  0.98264656  0.70237844  0.66405449     0.37200
C3989       C  0.98044934  0.70291174  0.62323473     0.35700
C3990       C  0.04344972  0.73774994  0.66156618     0.35700
N3991       N  0.96649269  0.69781838  0.61587473    -0.39200
N3992       N  0.05554755  0.74576345  0.66955192    -0.39200
N3993       N  0.97063388  0.69538729  0.67291938    -0.38600
N3994       N  0.05423687  0.74367078  0.61179321    -0.38600
C3995       C  0.10389988  0.72333284  0.53028469    -0.05300
C3996       C  0.10768443  0.73382851  0.51352189    -0.02400
C3997       C  0.12656373  0.73997084  0.50959851     0.02600
C3998       C  0.14200847  0.73563721  0.52255173    -0.05300
C3999       C  0.13749665  0.72704288  0.54030003    -0.02400
C4000       C  0.11900646  0.71979571  0.54351354     0.02600
C4001       C  0.09240948  0.73713667  0.49958402     0.37300
C4002       C  0.15160619  0.72610013  0.55567441     0.37200
C4003       C  0.11638191  0.70669714  0.55935131     0.35700
C4004       C  0.12982876  0.75026496  0.49187707     0.35700
N4005       N  0.11487216  0.69593338  0.57182272    -0.39200
N4006       N  0.13227463  0.75862985  0.47780787    -0.39200
N4007       N  0.16257815  0.72568628  0.56819975    -0.38600
N4008       N  0.08038900  0.73972177  0.48829522    -0.38600
C4009       C  0.99050658  0.58333378  0.47080687    -0.05300
C4010       C  0.00534954  0.59467147  0.46358497    -0.02400
C4011       C  0.00638259  0.61431856  0.46922269     0.02600
C4012       C  0.99242887  0.62267587  0.48191925    -0.05300
C4013       C  0.97589058  0.61221721  0.48620544    -0.02400
C4014       C  0.97504626  0.59247423  0.48093765     0.02600
C4015       C  0.02059769  0.58562654  0.45201004     0.37300
C4016       C  0.96098258  0.62112458  0.49830925     0.37200
C4017       C  0.95869303  0.58152146  0.48689601     0.35700
C4018       C  0.02330137  0.62503176  0.46427765     0.35700
N4019       N  0.94532459  0.57339332  0.49195211    -0.39200
N4020       N  0.03698359  0.63328750  0.46032167    -0.39200
N4021       N  0.94913401  0.62817880  0.50804175    -0.38600
N4022       N  0.03279375  0.57833052  0.44289037    -0.38600
C4023       C  0.07187668  0.60555908  0.49306352    -0.05300
C4024       C  0.08927137  0.60743279  0.48305996    -0.02400
C4025       C  0.10290128  0.59194265  0.48329916     0.02600
C4026       C  0.09964652  0.57590188  0.49540656    -0.05300
C4027       C  0.08034678  0.57207218  0.50011473    -0.02400
C4028       C  0.06617095  0.58659951  0.49717147     0.02600
C4029       C  0.09307566  0.62500486  0.47278509     0.37300
C4030       C  0.07508543  0.55425234  0.50922439     0.37200
C4031       C  0.04600224  0.58228086  0.49855246     0.35700
C4032       C  0.12011966  0.59281270  0.47160293     0.35700
N4033       N  0.02984430  0.57883160  0.49908388    -0.39200
N4034       N  0.13359856  0.59359702  0.46188115    -0.39200
N4035       N  0.07078221  0.54018536  0.51674016    -0.38600
N4036       N  0.09602917  0.63898468  0.46443873    -0.38600
C4037       C  0.09292827  0.47240420  0.61053187    -0.05300
C4038       C  0.11232023  0.46725118  0.61372108    -0.02400
C4039       C  0.12595275  0.47266375  0.59996464     0.02600
C4040       C  0.11928874  0.48241779  0.58321796    -0.05300
C4041       C  0.09992492  0.47973257  0.57758229    -0.02400
C4042       C  0.08693828  0.47298479  0.59128061     0.02600
C4043       C  0.11825774  0.45949260  0.63210053     0.37300
C4044       C  0.09312113  0.48497063  0.55864296     0.37200
C4045       C  0.06711163  0.46926399  0.58654195     0.35700
C4046       C  0.14627139  0.46907805  0.60367242     0.35700
N4047       N  0.05137528  0.46582821  0.58259534    -0.39200
N4048       N  0.16244923  0.46600861  0.60672428    -0.39200
N4049       N  0.08756146  0.48949772  0.54364273    -0.38600
N4050       N  0.12304777  0.45326104  0.64676807    -0.38600
C4051       C  0.22698672  0.53191298  0.61350725    -0.05300
C4052       C  0.22314478  0.54547250  0.62855541    -0.02400
C4053       C  0.22631493  0.54042022  0.64806944     0.02600
C4054       C  0.23247913  0.52134761  0.65293616    -0.05300
C4055       C  0.23766838  0.50827418  0.63753065    -0.02400
C4056       C  0.23514309  0.51368870  0.61812234     0.02600
C4057       C  0.21428849  0.56413165  0.62410997     0.37300
C4058       C  0.24484927  0.48873313  0.64118484     0.37200
C4059       C  0.23978847  0.49992061  0.60268966     0.35700
C4060       C  0.22351278  0.55510483  0.66298817     0.35700
N4061       N  0.24343411  0.48891484  0.59042862    -0.39200
N4062       N  0.22147607  0.56701192  0.67474574    -0.39200
N4063       N  0.25072502  0.47314593  0.64375961    -0.38600
N4064       N  0.20700723  0.57894331  0.62065637    -0.38600
C4065       C  0.21537090  0.61626398  0.51432617    -0.05300
C4066       C  0.20936453  0.62400243  0.49645777    -0.02400
C4067       C  0.21017958  0.64400857  0.49303354     0.02600
C4068       C  0.21854938  0.65645571  0.50676845    -0.05300
C4069       C  0.22725055  0.64824031  0.52335691    -0.02400
C4070       C  0.22601143  0.62814967  0.52686554     0.02600
C4071       C  0.20273159  0.61125112  0.48125159     0.37300
C4072       C  0.23752412  0.66035989  0.53686848     0.37200
C4073       C  0.23657903  0.61963560  0.54270986     0.35700
C4074       C  0.20096325  0.65185708  0.47597679     0.35700
N4075       N  0.24572370  0.61280353  0.55489444    -0.39200
N4076       N  0.19341609  0.65811829  0.46248857    -0.39200
N4077       N  0.24569843  0.66994771  0.54773534    -0.38600
N4078       N  0.19781392  0.60126517  0.46880590    -0.38600
C4079       C  0.11344884  0.50270667  0.49327814    -0.05300
C4080       C  0.10487684  0.51674976  0.48116208    -0.02400
C4081       C  0.08480812  0.51653067  0.47702454     0.02600
C4082       C  0.07312537  0.50211091  0.48484589    -0.05300
C4083       C  0.08229719  0.48676356  0.49498620    -0.02400
C4084       C  0.10230708  0.48697278  0.49891839     0.02600
C4085       C  0.11671626  0.53165160  0.47333216     0.37300
C4086       C  0.07103312  0.47109189  0.50223786     0.37200
C4087       C  0.11148322  0.47147279  0.50980114     0.35700
C4088       C  0.07622037  0.53118308  0.46476518     0.35700
N4089       N  0.11896775  0.45928827  0.51856475    -0.39200
N4090       N  0.06948573  0.54292312  0.45492268    -0.39200
N4091       N  0.06221382  0.45856618  0.50823989    -0.38600
N4092       N  0.12633441  0.54333570  0.46689956    -0.38600
C4093       C  0.08833510  0.71058238  0.61042088    -0.05300
C4094       C  0.09006481  0.70374157  0.62936743    -0.02400
C4095       C  0.10510250  0.71002131  0.64120832     0.02600
C4096       C  0.11887890  0.72281891  0.63394138    -0.05300
C4097       C  0.11571262  0.73154730  0.61603677    -0.02400
C4098       C  0.09978957  0.72623397  0.60473892     0.02600
C4099       C  0.07615126  0.69054302  0.63696917     0.37300
C4100       C  0.12906594  0.74562914  0.60911054     0.37200
C4101       C  0.09534110  0.73700896  0.58748511     0.35700
C4102       C  0.10703696  0.70196621  0.66033695     0.35700
N4103       N  0.09163242  0.74600819  0.57399536    -0.39200
N4104       N  0.10835463  0.69537321  0.67551516    -0.39200
N4105       N  0.13973282  0.75683617  0.60354981    -0.38600
N4106       N  0.06514654  0.68021616  0.64348848    -0.38600
C4107       C  0.21361283  0.65596099  0.60298609    -0.05300
C4108       C  0.22757815  0.64065615  0.60324149    -0.02400
C4109       C  0.22361885  0.62289696  0.59415174     0.02600
C4110       C  0.20684559  0.62141947  0.58283424    -0.05300
C4111       C  0.19630778  0.63845581  0.57806325    -0.02400
C4112       C  0.19920220  0.65564837  0.58857589     0.02600
C4113       C  0.24540385  0.64287738  0.61382283     0.37300
C4114       C  0.18204915  0.63809314  0.56277228     0.37200
C4115       C  0.18618701  0.67206340  0.58546593     0.35700
C4116       C  0.23612565  0.60614773  0.59757040     0.35700
N4117       N  0.17541357  0.68477926  0.58263584    -0.39200
N4118       N  0.24634285  0.59296868  0.60038224    -0.39200
N4119       N  0.17083521  0.63792768  0.55045949    -0.38600
N4120       N  0.25969105  0.64473394  0.62212427    -0.38600
C4121       C  0.14004732  0.62560201  0.72254321    -0.05300
C4122       C  0.11980507  0.62893454  0.72176349    -0.02400
C4123       C  0.10733635  0.61339559  0.71877672     0.02600
C4124       C  0.11497220  0.59439636  0.71633265    -0.05300
C4125       C  0.13497368  0.59084591  0.71890582    -0.02400
C4126       C  0.14740361  0.60634284  0.72240999     0.02600
C4127       C  0.11206710  0.64858297  0.71999404     0.37300
C4128       C  0.14320690  0.57167908  0.71489766     0.37200
C4129       C  0.16806350  0.60260787  0.72215920     0.35700
C4130       C  0.08719956  0.61752388  0.71438521     0.35700
N4131       N  0.18444421  0.59913942  0.72148050    -0.39200
N4132       N  0.07134138  0.62110145  0.71035471    -0.39200
N4133       N  0.14997544  0.55659527  0.71121404    -0.38600
N4134       N  0.10576938  0.66410127  0.71798359    -0.38600
C4135       C  0.13299098  0.70827327  0.75036894    -0.05300
C4136       C  0.12688451  0.72784463  0.75182580    -0.02400
C4137       C  0.10712056  0.73288228  0.75070692     0.02600
C4138       C  0.09331085  0.71813943  0.75035622    -0.05300
C4139       C  0.09972611  0.69875775  0.75380929    -0.02400
C4140       C  0.11965556  0.69400330  0.75417666     0.02600
C4141       C  0.14124659  0.74266933  0.75173447     0.37300
C4142       C  0.08611720  0.68352196  0.75636830     0.37200
C4143       C  0.12662788  0.67431327  0.75709387     0.35700
C4144       C  0.10143836  0.75301924  0.74794308     0.35700
N4145       N  0.13243395  0.65868805  0.75956773    -0.39200
N4146       N  0.09697578  0.76906943  0.74557178    -0.39200
N4147       N  0.07555375  0.67105093  0.75823822    -0.38600
N4148       N  0.15275483  0.75444817  0.75178132    -0.38600
C4149       C  0.24370357  0.58550696  0.72870975    -0.05300
C4150       C  0.22939583  0.59476570  0.74038137    -0.02400
C4151       C  0.22427816  0.61448587  0.73769149     0.02600
C4152       C  0.23318684  0.62500852  0.72291861    -0.05300
C4153       C  0.24993032  0.61658276  0.71399953    -0.02400
C4154       C  0.25471356  0.59674937  0.71634153     0.02600
C4155       C  0.21943731  0.58380080  0.75481189     0.37300
C4156       C  0.26246913  0.62825646  0.70252204     0.37200
C4157       C  0.26999642  0.58765249  0.70487116     0.35700
C4158       C  0.20938347  0.62346166  0.74976193     0.35700
N4159       N  0.28209135  0.58042077  0.69557137    -0.39200
N4160       N  0.19749614  0.63050313  0.75946258    -0.39200
N4161       N  0.27277532  0.63741882  0.69354679    -0.38600
N4162       N  0.21141902  0.57512538  0.76630120    -0.38600
C4163       C  0.21783992  0.74866583  0.62664211    -0.05300
C4164       C  0.20389071  0.75979982  0.61627065    -0.02400
C4165       C  0.20489704  0.76088376  0.59604552     0.02600
C4166       C  0.22054786  0.75215423  0.58609105    -0.05300
C4167       C  0.23559060  0.74290736  0.59648159    -0.02400
C4168       C  0.23425925  0.74110707  0.61670139     0.02600
C4169       C  0.18793798  0.76955052  0.62626185     0.37300
C4170       C  0.25199804  0.73436781  0.58620276     0.37200
C4171       C  0.24918786  0.73035188  0.62691521     0.35700
C4172       C  0.18904666  0.76961135  0.58529934     0.35700
N4173       N  0.26116739  0.72178208  0.63499786    -0.39200
N4174       N  0.17632206  0.77623998  0.57661625    -0.39200
N4175       N  0.26506684  0.72751777  0.57800673    -0.38600
N4176       N  0.17516064  0.77738924  0.63407550    -0.38600
C4177       C  0.44714898  0.86896738  0.25895767    -0.05300
C4178       C  0.43339043  0.86034431  0.24674750    -0.02400
C4179       C  0.43536797  0.84045698  0.24122399     0.02600
C4180       C  0.45136250  0.82908672  0.24755627    -0.05300
C4181       C  0.46582165  0.83818832  0.25846326    -0.02400
C4182       C  0.46373796  0.85789865  0.26408431     0.02600
C4183       C  0.41659710  0.87168845  0.24087530     0.37300
C4184       C  0.48258818  0.82701177  0.26475652     0.37200
C4185       C  0.47846202  0.86669627  0.27582243     0.35700
C4186       C  0.42036769  0.83147052  0.23003992     0.35700
N4187       N  0.49022925  0.87371186  0.28516419    -0.39200
N4188       N  0.40825754  0.82440344  0.22118914    -0.39200
N4189       N  0.49599979  0.81823414  0.26992295    -0.38600
N4190       N  0.40335778  0.88100628  0.23618444    -0.38600
C4191       C  0.34251272  0.98252558  0.26482409    -0.05300
C4192       C  0.33570653  0.97524735  0.24693446    -0.02400
C4193       C  0.31632183  0.97885904  0.24108494     0.02600
C4194       C  0.30337501  0.98932777  0.25329674    -0.05300
C4195       C  0.31119078  0.99938501  0.26927815    -0.02400
C4196       C  0.33067943  0.99626034  0.27482243     0.02600
C4197       C  0.34875801  0.96423460  0.23439329     0.37300
C4198       C  0.29939149  0.01347228  0.27984229     0.37200
C4199       C  0.33829886  0.00703137  0.29102083     0.35700
C4200       C  0.30971978  0.97159118  0.22266015     0.35700
N4201       N  0.34431403  0.01606348  0.30368615    -0.39200
N4202       N  0.30463090  0.96609972  0.20775178    -0.39200
N4203       N  0.29058247  0.02510908  0.28843677    -0.38600
N4204       N  0.35917108  0.95564261  0.22421009    -0.38600
C4205       C  0.43366047  0.00245886  0.36129695    -0.05300
C4206       C  0.42056337  0.99805868  0.37612706    -0.02400
C4207       C  0.42674425  0.99625386  0.39544514     0.02600
C4208       C  0.44484471  0.00311389  0.40136465    -0.05300
C4209       C  0.45732887  0.00986384  0.38687502    -0.02400
C4210       C  0.45209405  0.00878811  0.36703282     0.02600
C4211       C  0.40051385  0.99517656  0.37196099     0.37300
C4212       C  0.47632901  0.01629039  0.39213484     0.37200
C4213       C  0.46576549  0.01429952  0.35248103     0.35700
C4214       C  0.41477711  0.98582617  0.40866053     0.35700
N4215       N  0.47678172  0.01875931  0.34097569    -0.39200
N4216       N  0.40524976  0.97683724  0.41864057    -0.39200
N4217       N  0.49155130  0.02131407  0.39628174    -0.38600
N4218       N  0.38427558  0.99291591  0.36965389    -0.38600
C4219       C  0.31332847  0.99011027  0.37086177    -0.05300
C4220       C  0.32645824  0.00528118  0.37070107    -0.02400
C4221       C  0.34074006  0.00540368  0.35616182     0.02600
C4222       C  0.34141728  0.99036193  0.34225758    -0.05300
C4223       C  0.32475464  0.97962213  0.33923239    -0.02400
C4224       C  0.31059204  0.97946129  0.35366434     0.02600
C4225       C  0.32544458  0.02023731  0.38544763     0.37300
C4226       C  0.32317578  0.96751197  0.32214164     0.37200
C4227       C  0.29430753  0.96691404  0.35180789     0.35700
C4228       C  0.35463320  0.02057547  0.35552554     0.35700
N4229       N  0.28125636  0.95697639  0.35022570    -0.39200
N4230       N  0.36556560  0.03287838  0.35489857    -0.39200
N4231       N  0.32177877  0.95804595  0.30837656    -0.38600
N4232       N  0.32459253  0.03234745  0.39711039    -0.38600
C4233       C  0.24994815  0.87413355  0.49181054    -0.05300
C4234       C  0.25989083  0.86392410  0.50637021    -0.02400
C4235       C  0.25991329  0.84342049  0.50678754     0.02600
C4236       C  0.24929150  0.83278146  0.49299164    -0.05300
C4237       C  0.23751650  0.84326042  0.47983729    -0.02400
C4238       C  0.23769425  0.86377593  0.47948199     0.02600
C4239       C  0.27019882  0.87474678  0.52090377     0.37300
C4240       C  0.22501988  0.83309702  0.46667922     0.37200
C4241       C  0.22543494  0.87438247  0.46619494     0.35700
C4242       C  0.27177702  0.83333244  0.52083268     0.35700
N4243       N  0.21542394  0.88298978  0.45589204    -0.39200
N4244       N  0.28139713  0.82540898  0.53199922    -0.39200
N4245       N  0.21494240  0.82527777  0.45604451    -0.38600
N4246       N  0.27826560  0.88337873  0.53262816    -0.38600
C4247       C  0.23535175  0.98616004  0.38116792    -0.05300
C4248       C  0.21711307  0.97952495  0.37554792    -0.02400
C4249       C  0.21148791  0.98011411  0.35606933     0.02600
C4250       C  0.22418330  0.98736337  0.34218414    -0.05300
C4251       C  0.24085410  0.99696280  0.34844359    -0.02400
C4252       C  0.24599582  0.99698890  0.36804080     0.02600
C4253       C  0.20434827  0.97173371  0.38983788     0.37300
C4254       C  0.25299977  0.00657535  0.33476227     0.37200
C4255       C  0.26235513  0.00792932  0.37446473     0.35700
C4256       C  0.19322461  0.97218891  0.35030129     0.35700
N4257       N  0.27508698  0.01724278  0.37936569    -0.39200
N4258       N  0.17859980  0.96593942  0.34575636    -0.39200
N4259       N  0.26290780  0.01409948  0.32396257    -0.38600
N4260       N  0.19400922  0.96569056  0.40120019    -0.38600
C4261       C  0.33914385  0.99801173  0.46219455    -0.05300
C4262       C  0.35347545  0.99978553  0.44780924    -0.02400
C4263       C  0.37292982  0.00170797  0.45310480     0.02600
C4264       C  0.37900249  0.99691192  0.47179988    -0.05300
C4265       C  0.36491393  0.99499392  0.48621734    -0.02400
C4266       C  0.34524729  0.99767583  0.48172801     0.02600
C4267       C  0.34923520  0.99736961  0.42761545     0.37300
C4268       C  0.37041476  0.98974187  0.50562801     0.37200
C4269       C  0.33142406  0.99984942  0.49736522     0.35700
C4270       C  0.38601696  0.01100096  0.44014758     0.35700
N4271       N  0.32042799  0.00164891  0.50983208    -0.39200
N4272       N  0.39613221  0.01937504  0.43021260    -0.39200
N4273       N  0.37426453  0.98512746  0.52113147    -0.38600
N4274       N  0.34685789  0.99459558  0.41136999    -0.38600
C4275       C  0.47051739  0.87321821  0.39841496    -0.05300
C4276       C  0.47866520  0.86846366  0.38026053    -0.02400
C4277       C  0.47417975  0.88027659  0.36449703     0.02600
C4278       C  0.46299787  0.89738109  0.36742140    -0.05300
C4279       C  0.45970830  0.90446759  0.38638861    -0.02400
C4280       C  0.46446515  0.89258232  0.40201701     0.02600
C4281       C  0.49025241  0.85087253  0.37743287     0.37300
C4282       C  0.44945135  0.92276128  0.38995074     0.37200
C4283       C  0.46105268  0.89940637  0.42161224     0.35700
C4284       C  0.48017881  0.87440074  0.34526002     0.35700
N4285       N  0.45827199  0.90495477  0.43718300    -0.39200
N4286       N  0.48497226  0.86965256  0.32992224    -0.39200
N4287       N  0.44114927  0.93721188  0.39312689    -0.38600
N4288       N  0.49957342  0.83688902  0.37508577    -0.38600
C4289       C  0.34405445  0.89450898  0.49135530    -0.05300
C4290       C  0.36272285  0.90185346  0.48931158    -0.02400
C4291       C  0.37793517  0.88904470  0.48414671     0.02600
C4292       C  0.37504583  0.86890333  0.48457336    -0.05300
C4293       C  0.35812049  0.86216920  0.49353235    -0.02400
C4294       C  0.34217316  0.87489396  0.49569696     0.02600
C4295       C  0.36614658  0.92240132  0.49096892     0.37300
C4296       C  0.35601447  0.84212072  0.49886759     0.37200
C4297       C  0.32344936  0.86742013  0.50027023     0.35700
C4298       C  0.39560603  0.89674581  0.47662133     0.35700
N4299       N  0.30861524  0.86102752  0.50352302    -0.39200
N4300       N  0.40939671  0.90297179  0.47005204    -0.39200
N4301       N  0.35382788  0.82631613  0.50348209    -0.38600
N4302       N  0.36939676  0.93865844  0.49270082    -0.38600
C4303       C  0.45717442  0.75108738  0.37397306    -0.05300
C4304       C  0.47292504  0.75725173  0.36275649    -0.02400
C4305       C  0.47334916  0.75380861  0.34272079     0.02600
C4306       C  0.45927737  0.74241013  0.33390594    -0.05300
C4307       C  0.44571081  0.73323670  0.34551688    -0.02400
C4308       C  0.44444865  0.73769396  0.36544808     0.02600
C4309       C  0.48864443  0.76751008  0.37166765     0.37300
C4310       C  0.43241823  0.71993291  0.33676033     0.37200
C4311       C  0.42967443  0.72880204  0.37678021     0.35700
C4312       C  0.48802883  0.76257499  0.33114543     0.35700
N4313       N  0.41793098  0.72145307  0.38569972    -0.39200
N4314       N  0.49973754  0.76990712  0.32219251    -0.39200
N4315       N  0.42190083  0.70920177  0.32981444    -0.38600
N4316       N  0.50126307  0.77565864  0.37862088    -0.38600
C4317       C  0.35519677  0.75324543  0.45259563    -0.05300
C4318       C  0.35210973  0.74422678  0.47028067    -0.02400
C4319       C  0.33321255  0.74261740  0.47752704     0.02600
C4320       C  0.31703437  0.74924386  0.46654755    -0.05300
C4321       C  0.32028036  0.75616257  0.44774320    -0.02400
C4322       C  0.33921887  0.75855873  0.44105317     0.02600
C4323       C  0.36858807  0.73777176  0.48158562     0.37300
C4324       C  0.30421776  0.76110316  0.43521693     0.37200
C4325       C  0.34231372  0.76816418  0.42290704     0.35700
C4326       C  0.33084324  0.73527908  0.49683207     0.35700
N4327       N  0.34480705  0.77591683  0.40850850    -0.39200
N4328       N  0.32912189  0.72939527  0.51223427    -0.39200
N4329       N  0.29130560  0.76499475  0.42534464    -0.38600
N4330       N  0.38170792  0.73245843  0.49053862    -0.38600
C4331       C  0.45495649  0.91623144  0.49373555    -0.05300
C4332       C  0.44058762  0.90565613  0.50294915    -0.02400
C4333       C  0.43986168  0.88527952  0.50020671     0.02600
C4334       C  0.45338001  0.87536546  0.48809202    -0.05300
C4335       C  0.46910156  0.88566115  0.48102399    -0.02400
C4336       C  0.47002945  0.90591280  0.48404585     0.02600
C4337       C  0.42600184  0.91586438  0.51441359     0.37300
C4338       C  0.48347227  0.87557241  0.46916707     0.37200
C4339       C  0.48646712  0.91615303  0.47698231     0.35700
C4340       C  0.42432961  0.87469065  0.50865270     0.35700
N4341       N  0.49977017  0.92417108  0.47153635    -0.39200
N4342       N  0.41191143  0.86632601  0.51548527    -0.39200
N4343       N  0.49482293  0.86745249  0.45963011    -0.38600
N4344       N  0.41437375  0.92405327  0.52355782    -0.38600
C4345       C  0.34495272  0.74598969  0.35298450    -0.05300
C4346       C  0.36153929  0.75400594  0.34476737    -0.02400
C4347       C  0.37819660  0.75624097  0.35600511     0.02600
C4348       C  0.37786471  0.75159260  0.37563663    -0.05300
C4349       C  0.36332879  0.73960192  0.38235867    -0.02400
C4350       C  0.34659932  0.73711492  0.37112955     0.02600
C4351       C  0.36026734  0.76398272  0.32659420     0.37300
C4352       C  0.36466963  0.73144866  0.40141804     0.37200
C4353       C  0.33002461  0.72844003  0.37971382     0.35700
C4354       C  0.39493187  0.76545969  0.34813518     0.35700
N4355       N  0.31705163  0.72166976  0.38724153    -0.39200
N4356       N  0.40833431  0.77274331  0.34191376    -0.39200
N4357       N  0.36560903  0.72462622  0.41651230    -0.38600
N4358       N  0.35970723  0.77268377  0.31250623    -0.38600
C4359       C  0.23402849  0.83710169  0.38923468    -0.05300
C4360       C  0.22143661  0.85314195  0.39123264    -0.02400
C4361       C  0.22476049  0.86667619  0.40600919     0.02600
C4362       C  0.24158033  0.86453497  0.41748565    -0.05300
C4363       C  0.25037790  0.84593899  0.41882214    -0.02400
C4364       C  0.24655512  0.83212900  0.40443357     0.02600
C4365       C  0.20594310  0.85608974  0.37752373     0.37300
C4366       C  0.26419901  0.84136577  0.43385341     0.37200
C4367       C  0.25682279  0.81363236  0.40423642     0.35700
C4368       C  0.21130339  0.88284567  0.40893666     0.35700
N4369       N  0.26498804  0.79883491  0.40440800    -0.39200
N4370       N  0.20008878  0.89536453  0.41125393    -0.39200
N4371       N  0.27515031  0.83760671  0.44588510    -0.38600
N4372       N  0.19348023  0.85829312  0.36664833    -0.38600
C4373       C  0.32238880  0.86391935  0.30206744    -0.05300
C4374       C  0.33474571  0.86603873  0.31811660    -0.02400
C4375       C  0.35453293  0.86934637  0.31543055     0.02600
C4376       C  0.36196794  0.87254416  0.29669586    -0.05300
C4377       C  0.34942422  0.87097382  0.28073214    -0.02400
C4378       C  0.32980883  0.86699377  0.28342383     0.02600
C4379       C  0.32729920  0.86492319  0.33758995     0.37300
C4380       C  0.35669906  0.87276492  0.26127401     0.37200
C4381       C  0.31709184  0.86678894  0.26685306     0.35700
C4382       C  0.36697056  0.86948613  0.33224804     0.35700
N4383       N  0.30713658  0.86683096  0.25350395    -0.39200
N4384       N  0.37677544  0.86945268  0.34571978    -0.39200
N4385       N  0.36222492  0.87409137  0.24565204    -0.38600
N4386       N  0.32146736  0.86430080  0.35317210    -0.38600
C4387       C  0.34156862  0.75364751  0.27505330    -0.05300
C4388       C  0.34851156  0.76275149  0.25838024    -0.02400
C4389       C  0.36816332  0.76091079  0.25319805     0.02600
C4390       C  0.38084969  0.74908881  0.26402246    -0.05300
C4391       C  0.37319579  0.73729743  0.27843405    -0.02400
C4392       C  0.35352838  0.73936274  0.28379634     0.02600
C4393       C  0.33515955  0.77340938  0.24615842     0.37300
C4394       C  0.38562667  0.72304437  0.28769427     0.37200
C4395       C  0.34584302  0.72704509  0.29846182     0.35700
C4396       C  0.37536990  0.77129156  0.23681596     0.35700
N4397       N  0.33973754  0.71692800  0.30995772    -0.39200
N4398       N  0.38114389  0.77954432  0.22373717    -0.39200
N4399       N  0.39561646  0.71155200  0.29483416    -0.38600
N4400       N  0.32441938  0.78151081  0.23616322    -0.38600
C4401       C  0.24717610  0.73296637  0.36674444    -0.05300
C4402       C  0.26164927  0.72416118  0.37828269    -0.02400
C4403       C  0.26027402  0.72512637  0.39865320     0.02600
C4404       C  0.24367472  0.73345444  0.40758982    -0.05300
C4405       C  0.22761026  0.73829999  0.39601687    -0.02400
C4406       C  0.22917364  0.73770202  0.37568078     0.02600
C4407       C  0.27728488  0.71322126  0.36909460     0.37300
C4408       C  0.20962076  0.74454698  0.40510822     0.37200
C4409       C  0.21226989  0.74235359  0.36418834     0.35700
C4410       C  0.27600773  0.71785190  0.41042764     0.35700
N4411       N  0.19860230  0.74600582  0.35526504    -0.39200
N4412       N  0.28855853  0.71214096  0.41992905    -0.39200
N4413       N  0.19533101  0.74952351  0.41246805    -0.38600
N4414       N  0.28929360  0.70418585  0.36128879    -0.38600
C4415       C  0.22837353  0.90689630  0.27154780    -0.05300
C4416       C  0.21648726  0.89894132  0.28571715    -0.02400
C4417       C  0.21830886  0.87910422  0.29012840     0.02600
C4418       C  0.23194396  0.86697399  0.28031168    -0.05300
C4419       C  0.24205908  0.87446183  0.26452598    -0.02400
C4420       C  0.24031880  0.89439977  0.26021554     0.02600
C4421       C  0.20237268  0.91124257  0.29577871     0.37300
C4422       C  0.25478945  0.86187385  0.25314873     0.37200
C4423       C  0.25081727  0.90211999  0.24414115     0.35700
C4424       C  0.20632718  0.87113231  0.30501269     0.35700
N4425       N  0.25911206  0.90834464  0.23128657    -0.39200
N4426       N  0.19675405  0.86472963  0.31683856    -0.39200
N4427       N  0.26482061  0.85186270  0.24387334    -0.38600
N4428       N  0.19107360  0.92111553  0.30365678    -0.38600
C4429       C  0.61870208  0.02349994  0.72786533    -0.05300
C4430       C  0.62722713  0.03639064  0.74111451    -0.02400
C4431       C  0.64754959  0.03623710  0.74367537     0.02600
C4432       C  0.65956175  0.02315021  0.73295655    -0.05300
C4433       C  0.65072679  0.00852384  0.72189842    -0.02400
C4434       C  0.63046712  0.00873505  0.71937102     0.02600
C4435       C  0.61508597  0.05059854  0.75121092     0.37300
C4436       C  0.66242744  0.99313311  0.71309707     0.37200
C4437       C  0.62171159  0.99455662  0.70680081     0.35700
C4438       C  0.65613358  0.05020244  0.75658504     0.35700
N4439       N  0.61466300  0.98331724  0.69673833    -0.39200
N4440       N  0.66299033  0.06133345  0.76690845    -0.39200
N4441       N  0.67156377  0.98064932  0.70613878    -0.38600
N4442       N  0.60536749  0.06186550  0.75935276    -0.38600
C4443       C  0.47450282  0.15711824  0.71413564    -0.05300
C4444       C  0.46808457  0.14729211  0.69740429    -0.02400
C4445       C  0.47319821  0.12737127  0.69426955     0.02600
C4446       C  0.48563827  0.11762811  0.70726735    -0.05300
C4447       C  0.48875946  0.12654377  0.72544802    -0.02400
C4448       C  0.48362711  0.14619940  0.72868722     0.02600
C4449       C  0.45655350  0.15765259  0.68336117     0.37300
C4450       C  0.49683306  0.11534779  0.74115223     0.37200
C4451       C  0.48798839  0.15522638  0.74709754     0.35700
C4452       C  0.46518879  0.11675178  0.67820561     0.35700
N4453       N  0.49150045  0.16218997  0.76187170    -0.39200
N4454       N  0.45848493  0.10804756  0.66566661    -0.39200
N4455       N  0.50281757  0.10672407  0.75410120    -0.38600
N4456       N  0.44726864  0.16584536  0.67211549    -0.38600
C4457       C  0.49506186  0.01830440  0.61779556    -0.05300
C4458       C  0.48135493  0.02968819  0.60766529    -0.02400
C4459       C  0.47761904  0.02563734  0.58796319     0.02600
C4460       C  0.48682852  0.00959139  0.57844051    -0.05300
C4461       C  0.49769522  0.99630639  0.58963648    -0.02400
C4462       C  0.50125050  0.00039196  0.60932166     0.02600
C4463       C  0.47115175  0.04561743  0.61734013     0.37300
C4464       C  0.50636656  0.97904649  0.58078281     0.37200
C4465       C  0.51093773  0.98592730  0.62107521     0.35700
C4466       C  0.46447097  0.03828189  0.57748132     0.35700
N4467       N  0.51829592  0.97420287  0.63051154    -0.39200
N4468       N  0.45404244  0.04859838  0.56930136    -0.39200
N4469       N  0.51347663  0.96527462  0.57389505    -0.38600
N4470       N  0.46281382  0.05825792  0.62499805    -0.38600
C4471       C  0.64582624  0.98290627  0.62452160    -0.05300
C4472       C  0.62674019  0.97809784  0.62088641    -0.02400
C4473       C  0.61189946  0.98860324  0.63060103     0.02600
C4474       C  0.61676135  0.00310371  0.64468294    -0.05300
C4475       C  0.63594173  0.00237561  0.65202630    -0.02400
C4476       C  0.64975657  0.98976349  0.64319718     0.02600
C4477       C  0.62253570  0.96468591  0.60532040     0.37300
C4478       C  0.64211966  0.01524761  0.66728174     0.37200
C4479       C  0.66929339  0.98783561  0.65043142     0.35700
C4480       C  0.59219524  0.98477593  0.62509566     0.35700
N4481       N  0.68498319  0.98620346  0.65592435    -0.39200
N4482       N  0.57659877  0.98149663  0.62046600    -0.39200
N4483       N  0.64740161  0.02579643  0.67909286    -0.38600
N4484       N  0.61901724  0.95404525  0.59289093    -0.38600
C4485       C  0.73676933  0.01085303  0.60762112    -0.05300
C4486       C  0.73476530  0.99457737  0.61958352    -0.02400
C4487       C  0.74083174  0.99515932  0.63900663     0.02600
C4488       C  0.74875209  0.01207171  0.64694236    -0.05300
C4489       C  0.75237404  0.02767126  0.63464296    -0.02400
C4490       C  0.74690122  0.02685099  0.61493973     0.02600
C4491       C  0.72550926  0.97742985  0.61218550     0.37300
C4492       C  0.76083571  0.04498264  0.64250531     0.37200
C4493       C  0.75088290  0.04290684  0.60252954     0.35700
C4494       C  0.73791285  0.97856862  0.65106405     0.35700
N4495       N  0.75433036  0.05562745  0.59256543    -0.39200
N4496       N  0.73546499  0.96509455  0.66032884    -0.39200
N4497       N  0.76750125  0.05886094  0.64877925    -0.38600
N4498       N  0.71801750  0.96377715  0.60642429    -0.38600
C4499       C  0.68811509  0.15878961  0.50847371    -0.05300
C4500       C  0.66877596  0.15429314  0.51281568    -0.02400
C4501       C  0.66396529  0.13521054  0.51779343     0.02600
C4502       C  0.67828257  0.12030251  0.51797812    -0.05300
C4503       C  0.69717435  0.12438885  0.51210052    -0.02400
C4504       C  0.70214462  0.14345184  0.50750563     0.02600
C4505       C  0.65368304  0.16921781  0.51195548     0.37300
C4506       C  0.71179625  0.10892775  0.51158043     0.37200
C4507       C  0.72206231  0.14718822  0.50289285     0.35700
C4508       C  0.64447632  0.13117791  0.52372939     0.35700
N4509       N  0.73801884  0.14983937  0.49922226    -0.39200
N4510       N  0.62889381  0.12812375  0.52848897    -0.39200
N4511       N  0.72341112  0.09658204  0.51118214    -0.38600
N4512       N  0.64162318  0.18108865  0.51112441    -0.38600
C4513       C  0.55770414  0.01926057  0.50825016    -0.05300
C4514       C  0.56281945  0.01591904  0.52761470    -0.02400
C4515       C  0.58212644  0.01756639  0.53381255     0.02600
C4516       C  0.59685566  0.02273191  0.52068602    -0.05300
C4517       C  0.59154625  0.02635797  0.50131070    -0.02400
C4518       C  0.57217132  0.02450773  0.49515670     0.02600
C4519       C  0.54815500  0.01035374  0.54124193     0.37300
C4520       C  0.60602531  0.03172446  0.48748373     0.37200
C4521       C  0.56700958  0.02861315  0.47539152     0.35700
C4522       C  0.58641976  0.01437035  0.55400594     0.35700
N4523       N  0.56294269  0.03198368  0.45961737    -0.39200
N4524       N  0.58963811  0.01169785  0.57011381    -0.39200
N4525       N  0.61761497  0.03608258  0.47651171    -0.38600
N4526       N  0.53645313  0.00595218  0.55207597    -0.38600
C4527       C  0.60702107  0.10171965  0.73211256    -0.05300
C4528       C  0.59956071  0.11649592  0.74498459    -0.02400
C4529       C  0.61197586  0.13044872  0.75244882     0.02600
C4530       C  0.63152161  0.12908762  0.74771557    -0.05300
C4531       C  0.63918427  0.11066958  0.74212711    -0.02400
C4532       C  0.62721006  0.09786003  0.73225572     0.02600
C4533       C  0.57934278  0.11851268  0.74999510     0.37300
C4534       C  0.65968600  0.10627565  0.74356989     0.37200
C4535       C  0.63613464  0.08208948  0.72111756     0.35700
C4536       C  0.60449479  0.14726435  0.76306295     0.35700
N4537       N  0.64354326  0.06989363  0.71196159    -0.39200
N4538       N  0.59847673  0.16074922  0.77136898    -0.39200
N4539       N  0.67601601  0.10262925  0.74445185    -0.38600
N4540       N  0.56339934  0.12081541  0.75451139    -0.38600
C4541       C  0.70938883  0.08559355  0.63480629    -0.05300
C4542       C  0.70011186  0.08400525  0.65280288    -0.02400
C4543       C  0.70215059  0.09862344  0.66678204     0.02600
C4544       C  0.70994349  0.11646340  0.66137110    -0.05300
C4545       C  0.72186942  0.11672798  0.64490888    -0.02400
C4546       C  0.72225134  0.10080813  0.63205890     0.02600
C4547       C  0.68588724  0.06945390  0.65613227     0.37300
C4548       C  0.73295537  0.13359937  0.64062282     0.37200
C4549       C  0.73465046  0.10083132  0.61524747     0.35700
C4550       C  0.69486435  0.09557073  0.68605764     0.35700
N4551       N  0.74460485  0.10091218  0.60189067    -0.39200
N4552       N  0.68925955  0.09274636  0.70142178    -0.39200
N4553       N  0.74181202  0.14698817  0.63694958    -0.38600
N4554       N  0.67405252  0.05848120  0.65927140    -0.38600
C4555       C  0.72240843  0.13713589  0.72856062    -0.05300
C4556       C  0.71928274  0.12505826  0.74441285    -0.02400
C4557       C  0.72334140  0.10498307  0.74300562     0.02600
C4558       C  0.73103742  0.09667235  0.72581311    -0.05300
C4559       C  0.73619643  0.10902937  0.71074538    -0.02400
C4560       C  0.73227592  0.12927286  0.71232605     0.02600
C4561       C  0.71084098  0.13332989  0.76190689     0.37300
C4562       C  0.74526623  0.10088169  0.69357639     0.37200
C4563       C  0.73799025  0.14203053  0.69713390     0.35700
C4564       C  0.71867633  0.09272565  0.75905957     0.35700
N4565       N  0.74271637  0.15236835  0.68517470    -0.39200
N4566       N  0.71476607  0.08303783  0.77185009    -0.39200
N4567       N  0.75235099  0.09431573  0.67980019    -0.38600
N4568       N  0.70411396  0.14001277  0.77580758    -0.38600
C4569       C  0.69211210  0.23835238  0.62372403    -0.05300
C4570       C  0.67902031  0.24705810  0.61079288    -0.02400
C4571       C  0.68401741  0.24858686  0.59119883     0.02600
C4572       C  0.70235716  0.24179910  0.58452851    -0.05300
C4573       C  0.71656466  0.23658750  0.59825018    -0.02400
C4574       C  0.71145392  0.23510453  0.61780971     0.02600
C4575       C  0.66027808  0.25403690  0.61746830     0.37300
C4576       C  0.73619675  0.23174040  0.59238873     0.37200
C4577       C  0.72611484  0.22997177  0.63186066     0.35700
C4578       C  0.67013389  0.25712488  0.57800489     0.35700
N4579       N  0.73815106  0.22618925  0.64280915    -0.39200
N4580       N  0.65887522  0.26397616  0.56769064    -0.39200
N4581       N  0.75195623  0.22797004  0.58799625    -0.38600
N4582       N  0.64547645  0.26007986  0.62278271    -0.38600
C4583       C  0.55402916  0.25477401  0.71998370    -0.05300
C4584       C  0.56812858  0.25624228  0.73454972    -0.02400
C4585       C  0.58791147  0.25316080  0.73000081     0.02600
C4586       C  0.59358237  0.24688728  0.71126386    -0.05300
C4587       C  0.57935373  0.24651993  0.69663955    -0.02400
C4588       C  0.56011779  0.25222053  0.70079742     0.02600
C4589       C  0.56227631  0.25980469  0.75434130     0.37300
C4590       C  0.58323798  0.23680263  0.67843490     0.37200
C4591       C  0.54658881  0.25608269  0.68535647     0.35700
C4592       C  0.60236015  0.25535229  0.74486383     0.35700
N4593       N  0.53584584  0.26009054  0.67322840    -0.39200
N4594       N  0.61391492  0.25721659  0.75669117    -0.39200
N4595       N  0.58558752  0.22813871  0.66423649    -0.38600
N4596       N  0.55760632  0.26257592  0.77015469    -0.38600
C4597       C  0.47064561  0.13028048  0.59809987    -0.05300
C4598       C  0.47316784  0.13665637  0.61724792    -0.02400
C4599       C  0.48463305  0.12536464  0.62972016     0.02600
C4600       C  0.49058680  0.10644124  0.62402792    -0.05300
C4601       C  0.48445562  0.09880309  0.60618601    -0.02400
C4602       C  0.47282936  0.11031511  0.59406525     0.02600
C4603       C  0.46526903  0.15530765  0.62352746     0.37300
C4604       C  0.49313118  0.08097461  0.59861077     0.37200
C4605       C  0.46569580  0.10263408  0.57598337     0.35700
C4606       C  0.49266137  0.13425434  0.64683274     0.35700
N4607       N  0.45984221  0.09662798  0.56157129    -0.39200
N4608       N  0.49951225  0.14158782  0.66013789    -0.39200
N4609       N  0.50064079  0.06724077  0.59208097    -0.38600
N4610       N  0.45861415  0.17005491  0.62858436    -0.38600
C4611       C  0.58867715  0.22221229  0.59122093    -0.05300
C4612       C  0.60629565  0.21174794  0.58915312    -0.02400
C4613       C  0.62015370  0.21285776  0.60376333     0.02600
C4614       C  0.61610794  0.22414516  0.62039172    -0.05300
C4615       C  0.60113280  0.23835390  0.61978301    -0.02400
C4616       C  0.58700450  0.23711777  0.60524488     0.02600
C4617       C  0.60947897  0.19886511  0.57272165     0.37300
C4618       C  0.59998639  0.25373537  0.63411553     0.37200
C4619       C  0.57010770  0.24990863  0.60569583     0.35700
C4620       C  0.63810818  0.20166352  0.60232904     0.35700
N4621       N  0.55656308  0.26006249  0.60605307    -0.39200
N4622       N  0.65253747  0.19292391  0.60118109    -0.39200
N4623       N  0.59909152  0.26629397  0.64529970    -0.38600
N4624       N  0.61199667  0.18864424  0.55957261    -0.38600
C4625       C  0.55938819  0.10746930  0.52426227    -0.05300
C4626       C  0.57508679  0.10587631  0.51140057    -0.02400
C4627       C  0.59125464  0.09401257  0.51590594     0.02600
C4628       C  0.59159395  0.08339110  0.53332636    -0.05300
C4629       C  0.57411764  0.08190177  0.54370176    -0.02400
C4630       C  0.55831685  0.09435147  0.53962335     0.02600
C4631       C  0.57498505  0.11727303  0.49397672     0.37300
C4632       C  0.57212703  0.06781013  0.55881873     0.37200
C4633       C  0.54199005  0.09482823  0.55270291     0.35700
C4634       C  0.60752627  0.09358451  0.50276454     0.35700
N4635       N  0.52937940  0.09493739  0.56359643    -0.39200
N4636       N  0.62036117  0.09334248  0.49211691    -0.39200
N4637       N  0.56992592  0.05671945  0.57088105    -0.38600
N4638       N  0.57492265  0.12639220  0.48013131    -0.38600
C4639       C  0.58304951  0.23049741  0.50805854    -0.05300
C4640       C  0.58971806  0.22415528  0.48961949    -0.02400
C4641       C  0.60880242  0.22758759  0.48384511     0.02600
C4642       C  0.62098469  0.23791519  0.49620388    -0.05300
C4643       C  0.61303565  0.24747469  0.51262339    -0.02400
C4644       C  0.59422957  0.24356032  0.51875985     0.02600
C4645       C  0.57709922  0.21367127  0.47678355     0.37300
C4646       C  0.62426734  0.26139291  0.52324798     0.37200
C4647       C  0.58705324  0.25207891  0.53666460     0.35700
C4648       C  0.61606811  0.21973782  0.46570761     0.35700
N4649       N  0.58131080  0.25895491  0.55090365    -0.39200
N4650       N  0.62171147  0.21355093  0.45113721    -0.39200
N4651       N  0.63298153  0.27277379  0.53161251    -0.38600
N4652       N  0.56701643  0.20537565  0.46652121    -0.38600
C4653       C  0.50306811  0.23788083  0.61428002    -0.05300
C4654       C  0.51506743  0.23034857  0.62894526    -0.02400
C4655       C  0.50892731  0.23073556  0.64839277     0.02600
C4656       C  0.49106197  0.23991973  0.65387617    -0.05300
C4657       C  0.47988407  0.24903708  0.63913646    -0.02400
C4658       C  0.48581838  0.24783686  0.61963615     0.02600
C4659       C  0.53349148  0.22114578  0.62417794     0.37300
C4660       C  0.46159624  0.25885448  0.64343207     0.37200
C4661       C  0.47371950  0.25636921  0.60476711     0.35700
C4662       C  0.52114265  0.22097171  0.66242171     0.35700
N4663       N  0.46406290  0.26302642  0.59285998    -0.39200
N4664       N  0.53107531  0.21310830  0.67336339    -0.39200
N4665       N  0.44699758  0.26677348  0.64658386    -0.38600
N4666       N  0.54842454  0.21386400  0.62127643    -0.38600
C4667       C  0.47385647  0.09406006  0.48999663    -0.05300
C4668       C  0.48551694  0.10660664  0.47954814    -0.02400
C4669       C  0.48471555  0.12673721  0.48355323     0.02600
C4670       C  0.47233998  0.13433535  0.49819311    -0.05300
C4671       C  0.45929812  0.12195125  0.50712978    -0.02400
C4672       C  0.46024651  0.10192317  0.50324332     0.02600
C4673       C  0.49936038  0.09868035  0.46570554     0.37300
C4674       C  0.44536767  0.12971527  0.52103877     0.37200
C4675       C  0.44749726  0.08939605  0.51343435     0.35700
C4676       C  0.49753263  0.13925366  0.47339585     0.35700
N4677       N  0.43721871  0.07974947  0.52186495    -0.39200
N4678       N  0.50781311  0.14909030  0.46514581    -0.39200
N4679       N  0.43434148  0.13588423  0.53218628    -0.38600
N4680       N  0.51049975  0.09242884  0.45471565    -0.38600
C4681       C  0.44820448  0.26609733  0.87381528    -0.05300
C4682       C  0.46291624  0.27459633  0.86275967    -0.02400
C4683       C  0.46485296  0.27037104  0.84291570     0.02600
C4684       C  0.45359781  0.25610314  0.83418764    -0.05300
C4685       C  0.44164804  0.24498992  0.84589122    -0.02400
C4686       C  0.43848754  0.25024187  0.86550263     0.02600
C4687       C  0.47679066  0.28704883  0.87190243     0.37300
C4688       C  0.43324297  0.22772936  0.83792828     0.37200
C4689       C  0.42499511  0.23949088  0.87677186     0.35700
C4690       C  0.47863490  0.28064858  0.83144622     0.35700
N4691       N  0.41421810  0.23081220  0.88568709    -0.39200
N4692       N  0.48959457  0.28884181  0.82228733    -0.39200
N4693       N  0.42704213  0.21359127  0.83176852    -0.38600
N4694       N  0.48818885  0.29669323  0.87905038    -0.38600
C4695       C  0.35536869  0.25814529  0.96748161    -0.05300
C4696       C  0.35118564  0.24328096  0.98047356    -0.02400
C4697       C  0.33186785  0.24023019  0.98616571     0.02600
C4698       C  0.31689628  0.25317843  0.98025390    -0.05300
C4699       C  0.32152618  0.26886618  0.96844676    -0.02400
C4700       C  0.34014916  0.27029558  0.96086382     0.02600
C4701       C  0.36674177  0.23108650  0.98781814     0.37300
C4702       C  0.30750828  0.28452848  0.96517469     0.37200
C4703       C  0.34334090  0.28455662  0.94621209     0.35700
C4704       C  0.32748273  0.22378104  0.99792345     0.35700
N4705       N  0.34491957  0.29589517  0.93428692    -0.39200
N4706       N  0.32397295  0.21060702  0.00726573    -0.39200
N4707       N  0.29652585  0.29719246  0.96283210    -0.38600
N4708       N  0.37918804  0.22138170  0.99371064    -0.38600
C4709       C  0.45808109  0.37757265  0.99229891    -0.05300
C4710       C  0.45066266  0.38607392  0.00942267    -0.02400
C4711       C  0.45209406  0.40624036  0.01298361     0.02600
C4712       C  0.46028349  0.41833249  0.99900145    -0.05300
C4713       C  0.46897606  0.40944728  0.98250493    -0.02400
C4714       C  0.46856810  0.38912848  0.97970341     0.02600
C4715       C  0.44029950  0.37418690  0.02273255     0.37300
C4716       C  0.47811414  0.42108856  0.96812614     0.37200
C4717       C  0.47833365  0.37995012  0.96337603     0.35700
C4718       C  0.44377163  0.41460996  0.03044088     0.35700
N4719       N  0.48637664  0.37235619  0.95065322    -0.39200
N4720       N  0.43707858  0.42108704  0.04444515    -0.39200
N4721       N  0.48524465  0.43019815  0.95639373    -0.38600
N4722       N  0.43195603  0.36472554  0.03331674    -0.38600
C4723       C  0.34199418  0.25067017  0.85616207    -0.05300
C4724       C  0.36118191  0.25533712  0.85172265    -0.02400
C4725       C  0.37353937  0.26148018  0.86653143     0.02600
C4726       C  0.36780336  0.26006544  0.88590218    -0.05300
C4727       C  0.35063602  0.25058720  0.89026180    -0.02400
C4728       C  0.33748692  0.24626866  0.87536249     0.02600
C4729       C  0.36685562  0.25761563  0.83180551     0.37300
C4730       C  0.34602949  0.24621690  0.91000131     0.37200
C4731       C  0.31839886  0.23974350  0.87993092     0.35700
C4732       C  0.39090767  0.27157242  0.86173049     0.35700
N4733       N  0.30314784  0.23457858  0.88364096    -0.39200
N4734       N  0.40446835  0.28003229  0.85780756    -0.39200
N4735       N  0.34227089  0.24212654  0.92561221    -0.38600
N4736       N  0.37172160  0.25961879  0.81604698    -0.38600
C4737       C  0.38159398  0.23107874  0.76530378    -0.05300
C4738       C  0.37367553  0.22390085  0.78238031    -0.02400
C4739       C  0.35387985  0.22719746  0.78646351     0.02600
C4740       C  0.34214431  0.23731935  0.77317916    -0.05300
C4741       C  0.34930008  0.23998602  0.75433053    -0.02400
C4742       C  0.36914551  0.23754192  0.75060054     0.02600
C4743       C  0.38587391  0.21340781  0.79573729     0.37300
C4744       C  0.33649151  0.24702007  0.73931269     0.37200
C4745       C  0.37686605  0.24240027  0.73191735     0.35700
C4746       C  0.34606367  0.22154541  0.80480633     0.35700
N4747       N  0.38302815  0.24621070  0.71700671    -0.39200
N4748       N  0.33993795  0.21689891  0.81947100    -0.39200
N4749       N  0.32639242  0.25256261  0.72721418    -0.38600
N4750       N  0.39541644  0.20455421  0.80624619    -0.38600
C4751       C  0.24441573  0.40710236  0.74755537    -0.05300
C4752       C  0.22970825  0.39601853  0.75583599    -0.02400
C4753       C  0.23188513  0.37570573  0.75660020     0.02600
C4754       C  0.24864727  0.36647288  0.74925254    -0.05300
C4755       C  0.26140118  0.37700331  0.73798444    -0.02400
C4756       C  0.25952532  0.39734345  0.73735373     0.02600
C4757       C  0.21287604  0.40532263  0.76466134     0.37300
C4758       C  0.27728096  0.36680911  0.72830517     0.37200
C4759       C  0.27318234  0.40806630  0.72625836     0.35700
C4760       C  0.21784374  0.36435541  0.76657985     0.35700
N4761       N  0.28422823  0.41635716  0.71731289    -0.39200
N4762       N  0.20668297  0.35520081  0.77447031    -0.39200
N4763       N  0.28988261  0.35857809  0.72058405    -0.38600
N4764       N  0.19926076  0.41246939  0.77163400    -0.38600
C4765       C  0.24758002  0.25938475  0.86475314    -0.05300
C4766       C  0.24870773  0.27331854  0.87969390    -0.02400
C4767       C  0.23743804  0.27192110  0.89627415     0.02600
C4768       C  0.22809064  0.25459698  0.90042461    -0.05300
C4769       C  0.22718787  0.24013388  0.88578395    -0.02400
C4770       C  0.23630529  0.24292085  0.86763671     0.02600
C4771       C  0.26238118  0.28876271  0.87881946     0.37300
C4772       C  0.21719201  0.22245582  0.88939860     0.37200
C4773       C  0.23451822  0.22876311  0.85223439     0.35700
C4774       C  0.23606752  0.28834185  0.90954350     0.35700
N4775       N  0.23309902  0.21742024  0.83994462    -0.39200
N4776       N  0.23511583  0.30151539  0.91997499    -0.39200
N4777       N  0.20912278  0.20834502  0.89218533    -0.38600
N4778       N  0.27317433  0.30120600  0.87900485    -0.38600
C4779       C  0.46599840  0.41835904  0.89310329    -0.05300
C4780       C  0.47702789  0.40106533  0.89213650    -0.02400
C4781       C  0.47197597  0.38565027  0.90385814     0.02600
C4782       C  0.45582329  0.38792245  0.91628832    -0.05300
C4783       C  0.44936766  0.40708306  0.92126047    -0.02400
C4784       C  0.45531640  0.42253526  0.90995092     0.02600
C4785       C  0.49206015  0.39869249  0.87773895     0.37300
C4786       C  0.43587132  0.41106298  0.93686497     0.37200
C4787       C  0.44861198  0.44222483  0.91405991     0.35700
C4788       C  0.48315907  0.36765473  0.90273245     0.35700
N4789       N  0.44347930  0.45813094  0.91657384    -0.39200
N4790       N  0.49243072  0.35350033  0.90178018    -0.39200
N4791       N  0.42511670  0.41435880  0.94929829    -0.38600
N4792       N  0.50402511  0.39690132  0.86620173    -0.38600
C4793       C  0.37412452  0.39003395  0.77483969    -0.05300
C4794       C  0.35569481  0.39510778  0.76780940    -0.02400
C4795       C  0.34267583  0.38053575  0.76325660     0.02600
C4796       C  0.34761171  0.36092569  0.76691476    -0.05300
C4797       C  0.36683453  0.35587087  0.77199025    -0.02400
C4798       C  0.37963804  0.37043541  0.77706324     0.02600
C4799       C  0.34887368  0.41514405  0.76887228     0.37300
C4800       C  0.37330141  0.33588589  0.77389512     0.37200
C4801       C  0.39710542  0.36529877  0.78759700     0.35700
C4802       C  0.32364925  0.38591404  0.75623685     0.35700
N4803       N  0.41064351  0.36111511  0.79649752    -0.39200
N4804       N  0.30850921  0.39048126  0.75072121    -0.39200
N4805       N  0.37945424  0.32026838  0.77545404    -0.38600
N4806       N  0.34327791  0.43100175  0.77056132    -0.38600
C4807       C  0.45208692  0.37324107  0.77399795    -0.05300
C4808       C  0.43928599  0.36309247  0.76185122    -0.02400
C4809       C  0.44158565  0.34266981  0.75890092     0.02600
C4810       C  0.45783533  0.33229975  0.76630287    -0.05300
C4811       C  0.47181702  0.34292698  0.77642671    -0.02400
C4812       C  0.46903568  0.36304664  0.78014006     0.02600
C4813       C  0.42375133  0.37349067  0.75221954     0.37300
C4814       C  0.48873442  0.33303499  0.78425232     0.37200
C4815       C  0.48423164  0.37324593  0.78994046     0.35700
C4816       C  0.42691822  0.33228983  0.74852498     0.35700
N4817       N  0.49682573  0.38077893  0.79759941    -0.39200
N4818       N  0.41505194  0.32394702  0.74052503    -0.39200
N4819       N  0.50228115  0.32548371  0.79073396    -0.38600
N4820       N  0.41144012  0.38159260  0.74416202    -0.38600
C4821       C  0.37442316  0.48033547  0.75146128    -0.05300
C4822       C  0.36211922  0.46640082  0.74368079    -0.02400
C4823       C  0.34222296  0.47087469  0.74169812     0.02600
C4824       C  0.33460717  0.48940004  0.74741204    -0.05300
C4825       C  0.34772025  0.50432798  0.75106314    -0.02400
C4826       C  0.36765706  0.49985808  0.75214076     0.02600
C4827       C  0.36976988  0.44735697  0.73828638     0.37300
C4828       C  0.34090723  0.52402783  0.75493441     0.37200
C4829       C  0.38124544  0.51521234  0.75490719     0.35700
C4830       C  0.32972936  0.45633994  0.73372866     0.35700
N4831       N  0.39208732  0.52748194  0.75692437    -0.39200
N4832       N  0.31989213  0.44466174  0.72731740    -0.39200
N4833       N  0.33558409  0.53978068  0.75804263    -0.38600
N4834       N  0.37594825  0.43220028  0.73390924    -0.38600
C4835       C  0.47527773  0.49806467  0.87833335    -0.05300
C4836       C  0.48512210  0.48572053  0.89121369    -0.02400
C4837       C  0.48512731  0.49004117  0.91113768     0.02600
C4838       C  0.47592660  0.50718500  0.91842328    -0.05300
C4839       C  0.46873921  0.52095181  0.90510284    -0.02400
C4840       C  0.46834699  0.51630106  0.88513207     0.02600
C4841       C  0.49330621  0.46738012  0.88418318     0.37300
C4842       C  0.45983956  0.53897333  0.91193603     0.37200
C4843       C  0.45856258  0.52914825  0.87174657     0.35700
C4844       C  0.49383860  0.47617182  0.92412935     0.35700
N4845       N  0.45060791  0.53911892  0.86091737    -0.39200
N4846       N  0.50071506  0.46470918  0.93414535    -0.39200
N4847       N  0.45258086  0.55337271  0.91718939    -0.38600
N4848       N  0.49984121  0.45273467  0.87868789    -0.38600
C4849       C  0.35699111  0.49843137  0.90379398    -0.05300
C4850       C  0.34887594  0.50656304  0.88684237    -0.02400
C4851       C  0.36101338  0.50978857  0.87092887     0.02600
C4852       C  0.38100673  0.50668965  0.87302359    -0.05300
C4853       C  0.38863870  0.50628644  0.89180864    -0.02400
C4854       C  0.37704636  0.49987119  0.90678057     0.02600
C4855       C  0.32831844  0.51034122  0.88517932     0.37300
C4856       C  0.40914141  0.50828188  0.89477902     0.37200
C4857       C  0.38629142  0.49242131  0.92397285     0.35700
C4858       C  0.35297964  0.51470280  0.85233441     0.35700
N4859       N  0.39411665  0.48584940  0.93715595    -0.39200
N4860       N  0.34653323  0.51873345  0.83751301    -0.39200
N4861       N  0.42548148  0.50962004  0.89739437    -0.38600
N4862       N  0.31195438  0.51374039  0.88389289    -0.38600
C4863       C  0.30718700  0.36979845  0.89743411    -0.05300
C4864       C  0.28895034  0.36141571  0.89840993    -0.02400
C4865       C  0.27773417  0.35949915  0.88166914     0.02600
C4866       C  0.28547041  0.36376641  0.86338022    -0.05300
C4867       C  0.30408292  0.37175644  0.86248084    -0.02400
C4868       C  0.31516406  0.37371922  0.87929660     0.02600
C4869       C  0.28190592  0.35399830  0.91642876     0.37300
C4870       C  0.31223986  0.37816815  0.84448415     0.37200
C4871       C  0.33518451  0.37920363  0.87788466     0.35700
C4872       C  0.25780256  0.35409929  0.88359723     0.35700
N4873       N  0.35111779  0.38354902  0.87677080    -0.39200
N4874       N  0.24186074  0.35019888  0.88574504    -0.39200
N4875       N  0.31915716  0.38357954  0.83046289    -0.38600
N4876       N  0.27660096  0.34749752  0.93066514    -0.38600
C4877       C  0.34337225  0.39440709  0.01684688    -0.05300
C4878       C  0.34110672  0.37499547  0.02181944    -0.02400
C4879       C  0.35537165  0.36105959  0.01643743     0.02600
C4880       C  0.37216406  0.36720239  0.00689722    -0.05300
C4881       C  0.37664251  0.38708068  0.00835396    -0.02400
C4882       C  0.36232617  0.40063341  0.01439523     0.02600
C4883       C  0.32428001  0.36965980  0.03251790     0.37300
C4884       C  0.39507967  0.39402615  0.00205365     0.37200
C4885       C  0.36634071  0.42110740  0.01479452     0.35700
C4886       C  0.35212693  0.34079091  0.01994092     0.35700
N4887       N  0.36993185  0.43735037  0.01504279    -0.39200
N4888       N  0.34947300  0.32465646  0.02293292    -0.39200
N4889       N  0.40943878  0.40006003  0.99664672    -0.38600
N4890       N  0.31138583  0.36511671  0.04181220    -0.38600
C4891       C  0.28321751  0.47457863  0.86823934    -0.05300
C4892       C  0.26337689  0.47690741  0.86426709    -0.02400
C4893       C  0.25675452  0.47895663  0.84504271     0.02600
C4894       C  0.26998998  0.47967178  0.82945274    -0.05300
C4895       C  0.28996939  0.47831806  0.83367208    -0.02400
C4896       C  0.29645829  0.47521556  0.85278570     0.02600
C4897       C  0.24969495  0.47629664  0.88002312     0.37300
C4898       C  0.30398136  0.48059451  0.81843787     0.37200
C4899       C  0.31685843  0.47209690  0.85654114     0.35700
C4900       C  0.23620485  0.47899932  0.84137770     0.35700
N4901       N  0.33309413  0.46946495  0.85962624    -0.39200
N4902       N  0.21975027  0.47873206  0.83880263    -0.39200
N4903       N  0.31513730  0.48257989  0.80629313    -0.38600
N4904       N  0.23890724  0.47589456  0.89270357    -0.38600
C4905       C  0.25586536  0.36380781  0.97061453    -0.05300
C4906       C  0.24113030  0.35644007  0.95873630    -0.02400
C4907       C  0.23411049  0.33765980  0.96194435     0.02600
C4908       C  0.24285889  0.32561822  0.97590741    -0.05300
C4909       C  0.25616995  0.33366111  0.98885652    -0.02400
C4910       C  0.26206414  0.35284268  0.98657505     0.02600
C4911       C  0.23385531  0.36760373  0.94267949     0.37300
C4912       C  0.26368946  0.32227496  0.00470440     0.37200
C4913       C  0.27390381  0.36181175  0.00110156     0.35700
C4914       C  0.21736275  0.33108603  0.95159500     0.35700
N4915       N  0.28292649  0.36960505  0.01264635    -0.39200
N4916       N  0.20364406  0.32608086  0.94373350    -0.39200
N4917       N  0.26966823  0.31328781  0.01741709    -0.38600
N4918       N  0.22803642  0.37632958  0.92972257    -0.38600
C4919       C  0.34861551  0.50295864  0.98074363    -0.05300
C4920       C  0.35587975  0.49987432  0.99957606    -0.02400
C4921       C  0.37589828  0.49981565  0.00316491     0.02600
C4922       C  0.38883284  0.50544633  0.98870554    -0.05300
C4923       C  0.38097154  0.51343184  0.97167401    -0.02400
C4924       C  0.36096375  0.51185018  0.96750247     0.02600
C4925       C  0.34267582  0.49710614  0.01543049     0.37300
C4926       C  0.39331901  0.52402009  0.95900417     0.37200
C4927       C  0.35290827  0.52047632  0.95035304     0.35700
C4928       C  0.38309547  0.49351659  0.02172577     0.35700
N4929       N  0.34632153  0.52785585  0.93693463    -0.39200
N4930       N  0.38864806  0.48840891  0.03656580    -0.39200
N4931       N  0.40324731  0.53254832  0.94901033    -0.38600
N4932       N  0.33227786  0.49523964  0.02825175    -0.38600
C4933       C  0.98490658  0.74425776  0.88256053    -0.05300
C4934       C  0.97918813  0.72694112  0.87332420    -0.02400
C4935       C  0.98416775  0.72334351  0.85398903     0.02600
C4936       C  0.99606193  0.73624065  0.84441623    -0.05300
C4937       C  0.00487514  0.75121719  0.85469194    -0.02400
C4938       C  0.99921021  0.75544435  0.87374927     0.02600
C4939       C  0.96789675  0.71301696  0.88354576     0.37300
C4940       C  0.01972824  0.76224885  0.84557822     0.37200
C4941       C  0.00758325  0.77179541  0.88363082     0.35700
C4942       C  0.97615303  0.70706602  0.84362180     0.35700
N4943       N  0.01448863  0.78479759  0.89138148    -0.39200
N4944       N  0.96965479  0.69421130  0.83526396    -0.39200
N4945       N  0.03185346  0.77078295  0.83845250    -0.38600
N4946       N  0.95902218  0.70180898  0.89168749    -0.38600
C4947       C  0.86896614  0.74707234  0.98691899    -0.05300
C4948       C  0.86168498  0.73255229  0.97466563    -0.02400
C4949       C  0.84158100  0.73016840  0.97329837     0.02600
C4950       C  0.82894661  0.74235169  0.98418915    -0.05300
C4951       C  0.83651111  0.75469891  0.99851080    -0.02400
C4952       C  0.85652367  0.75664714  0.00016478     0.02600
C4953       C  0.87470359  0.72137327  0.96223929     0.37300
C4954       C  0.82383178  0.76627242  0.01094338     0.37200
C4955       C  0.86435510  0.76996570  0.01428382     0.35700
C4956       C  0.83391331  0.71633623  0.95966478     0.35700
N4957       N  0.87062966  0.78058441  0.02550488    -0.39200
N4958       N  0.82786727  0.70529235  0.94873109    -0.39200
N4959       N  0.81413873  0.77581351  0.02100225    -0.38600
N4960       N  0.88510493  0.71237389  0.95238890    -0.38600
C4961       C  0.99360485  0.84559171  0.96034601    -0.05300
C4962       C  0.00044213  0.84756413  0.97939700    -0.02400
C4963       C  0.00572707  0.86592346  0.98634898     0.02600
C4964       C  0.00484439  0.88184118  0.97386083    -0.05300
C4965       C  0.00231057  0.87869983  0.95403754    -0.02400
C4966       C  0.99486884  0.86118584  0.94754658     0.02600
C4967       C  0.99949503  0.83138943  0.99241756     0.37300
C4968       C  0.00621635  0.89399677  0.94061207     0.37200
C4969       C  0.98466250  0.86096842  0.92936735     0.35700
C4970       C  0.01049992  0.86866163  0.00649873     0.35700
N4971       N  0.97576433  0.86151675  0.91530487    -0.39200
N4972       N  0.01439289  0.87070867  0.02257959    -0.39200
N4973       N  0.00979424  0.90609189  0.92994654    -0.38600
N4974       N  0.99858024  0.81848079  0.00277559    -0.38600
C4975       C  0.97334621  0.85136611  0.84632924    -0.05300
C4976       C  0.98544972  0.85442506  0.86241283    -0.02400
C4977       C  0.99004870  0.83872967  0.87460178     0.02600
C4978       C  0.98084254  0.82109904  0.87181898    -0.05300
C4979       C  0.97357342  0.81690044  0.85337249    -0.02400
C4980       C  0.96970334  0.83210402  0.84056035     0.02600
C4981       C  0.99255523  0.87347455  0.86675439     0.37300
C4982       C  0.96807964  0.79731541  0.84870676     0.37200
C4983       C  0.96181435  0.82802403  0.82165729     0.35700
C4984       C  0.00398729  0.84036650  0.88993572     0.35700
N4985       N  0.95584551  0.82476638  0.80644158    -0.39200
N4986       N  0.01544527  0.84133756  0.90197646    -0.39200
N4987       N  0.96377437  0.78164626  0.84502129    -0.38600
N4988       N  0.99842865  0.88866058  0.87006116    -0.38600
C4989       C  0.87764109  0.97326340  0.74730335    -0.05300
C4990       C  0.86814435  0.98644665  0.75996518    -0.02400
C4991       C  0.84834444  0.99164635  0.75736657     0.02600
C4992       C  0.83796825  0.98468022  0.74114756    -0.05300
C4993       C  0.84848079  0.97358681  0.72705971    -0.02400
C4994       C  0.86809181  0.96803070  0.73016248     0.02600
C4995       C  0.87902827  0.99466158  0.77564538     0.37300
C4996       C  0.83895118  0.96640963  0.70997121     0.37200
C4997       C  0.87861755  0.95651409  0.71582913     0.35700
C4998       C  0.83875024  0.00392714  0.77169088     0.35700
N4999       N  0.88720277  0.94753932  0.70436557    -0.39200
N5000       N  0.83129756  0.01362315  0.78335950    -0.39200
N5001       N  0.83169843  0.96038510  0.69624507    -0.38600
N5002       N  0.88826677  0.00152965  0.78761694    -0.38600
C5003       C  0.99808322  0.85626751  0.77689559    -0.05300
C5004       C  0.00388620  0.84584635  0.79339099    -0.02400
C5005       C  0.00673786  0.82555311  0.79225929     0.02600
C5006       C  0.00605168  0.81592684  0.77427884    -0.05300
C5007       C  0.00429794  0.82697104  0.75738987    -0.02400
C5008       C  0.00000398  0.84701148  0.75868401     0.02600
C5009       C  0.00761737  0.85593449  0.81131977     0.37300
C5010       C  0.00623912  0.81766035  0.73864421     0.37200
C5011       C  0.99731095  0.85809660  0.74126120     0.35700
C5012       C  0.01017871  0.81466447  0.80962922     0.35700
N5013       N  0.99520383  0.86691188  0.72734453    -0.39200
N5014       N  0.01275709  0.80624187  0.82369856    -0.39200
N5015       N  0.00798153  0.81043397  0.72360926    -0.38600
N5016       N  0.01140963  0.86400845  0.82544466    -0.38600
C5017       C  0.97038194  0.93575257  0.87375483    -0.05300
C5018       C  0.98121241  0.95211564  0.87818447    -0.02400
C5019       C  0.98594851  0.95661211  0.89751748     0.02600
C5020       C  0.97997369  0.94455735  0.91274812    -0.05300
C5021       C  0.96982681  0.92751622  0.90787499    -0.02400
C5022       C  0.96489449  0.92338540  0.88858742     0.02600
C5023       C  0.98678751  0.96482231  0.86282838     0.37300
C5024       C  0.96418336  0.91398032  0.92249429     0.37200
C5025       C  0.95353822  0.90658123  0.88403026     0.35700
C5026       C  0.99613195  0.97425782  0.90148324     0.35700
N5027       N  0.94443980  0.89322045  0.88051147    -0.39200
N5028       N  0.00427118  0.98836068  0.90448587    -0.39200
N5029       N  0.95954075  0.90310447  0.93400164    -0.38600
N5030       N  0.99123228  0.97499619  0.85061386    -0.38600
C5031       C  0.84778897  0.88600062  0.94580517    -0.05300
C5032       C  0.86684785  0.88532801  0.93873020    -0.02400
C5033       C  0.87948976  0.87008391  0.94379125     0.02600
C5034       C  0.87292276  0.85498690  0.95537698    -0.05300
C5035       C  0.85434205  0.85621138  0.96346555    -0.02400
C5036       C  0.84195484  0.87207887  0.95919139     0.02600
C5037       C  0.87354116  0.90025915  0.92605339     0.37300
C5038       C  0.84806094  0.84110931  0.97613074     0.37200
C5039       C  0.82331993  0.87378605  0.96849604     0.35700
C5040       C  0.89904923  0.86970385  0.93635032     0.35700
N5041       N  0.80875859  0.87493687  0.97657414    -0.39200
N5042       N  0.91466258  0.86982572  0.93054918    -0.39200
N5043       N  0.84316947  0.82897582  0.98618451    -0.38600
N5044       N  0.87904725  0.91193235  0.91581039    -0.38600
C5045       C  0.83011355  0.98038704  0.84206253    -0.05300
C5046       C  0.82724772  0.96547275  0.82830054    -0.02400
C5047       C  0.84134506  0.96131422  0.81435131     0.02600
C5048       C  0.85990337  0.96875133  0.81689955    -0.05300
C5049       C  0.86203043  0.98521214  0.82901803    -0.02400
C5050       C  0.84675666  0.99146488  0.84107568     0.02600
C5051       C  0.81216791  0.95159406  0.83056902     0.37300
C5052       C  0.88005907  0.99524885  0.82985122     0.37200
C5053       C  0.84882268  0.00819376  0.85366687     0.35700
C5054       C  0.83698961  0.94804695  0.79866768     0.35700
N5055       N  0.85056551  0.02161124  0.86358893    -0.39200
N5056       N  0.83303385  0.93773255  0.78611424    -0.39200
N5057       N  0.89428291  0.00353920  0.83070024    -0.38600
N5058       N  0.80094228  0.93967254  0.83214083    -0.38600
C5059       C  0.74097585  0.00087691  0.86607821    -0.05300
C5060       C  0.75447727  0.01184238  0.85598769    -0.02400
C5061       C  0.75471633  0.01142996  0.83556558     0.02600
C5062       C  0.74165043  0.99983709  0.82525467    -0.05300
C5063       C  0.72647724  0.99127157  0.83536876    -0.02400
C5064       C  0.72594334  0.99219935  0.85565031     0.02600
C5065       C  0.76906875  0.02221397  0.86645156     0.37300
C5066       C  0.71261483  0.97964076  0.82514923     0.37200
C5067       C  0.71085619  0.98256999  0.86598032     0.35700
C5068       C  0.76880401  0.02234043  0.82518744     0.35700
N5069       N  0.69888455  0.97486555  0.87425941    -0.39200
N5070       N  0.77997908  0.03108064  0.81684652    -0.39200
N5071       N  0.70165031  0.97013208  0.81715544    -0.38600
N5072       N  0.78077056  0.03063462  0.87461814    -0.38600
C5073       C  0.76877602  0.87794433  0.95785944    -0.05300
C5074       C  0.77506058  0.86180476  0.94661090    -0.02400
C5075       C  0.76748950  0.84337535  0.94945410     0.02600
C5076       C  0.75488077  0.84004822  0.96503148    -0.05300
C5077       C  0.74917943  0.85604402  0.97699383    -0.02400
C5078       C  0.75575416  0.87497187  0.97311103     0.02600
C5079       C  0.78945309  0.86414826  0.93178618     0.37300
C5080       C  0.73649641  0.85314197  0.99318837     0.37200
C5081       C  0.74891341  0.89142779  0.98455777     0.35700
C5082       C  0.77161535  0.82819829  0.93522445     0.35700
N5083       N  0.74346231  0.90459090  0.99370462    -0.39200
N5084       N  0.77469041  0.81623868  0.92371553    -0.39200
N5085       N  0.72632429  0.85085669  0.00610749    -0.05000
N5086       N  0.80122978  0.86563631  0.92019353    -0.38600
C5087       C  0.86650902  0.96244943  0.95655794    -0.05300
C5088       C  0.87065454  0.96398435  0.97644060    -0.02400
C5089       C  0.89002777  0.96558231  0.98289398     0.02600
C5090       C  0.90549060  0.96579381  0.96957795    -0.05300
C5091       C  0.90146656  0.96330178  0.94983865    -0.02400
C5092       C  0.88226897  0.96166787  0.94336595     0.02600
C5093       C  0.85502520  0.96400586  0.99025011     0.37300
C5094       C  0.91721676  0.96203596  0.93604923     0.37200
C5095       C  0.87907427  0.95830561  0.92295679     0.35700
C5096       C  0.89422189  0.96582110  0.00331271     0.35700
N5097       N  0.87693088  0.95556055  0.90664353    -0.39200
N5098       N  0.89771830  0.96569664  0.01959313    -0.39200
N5099       N  0.92968307  0.96081075  0.92499523    -0.38600
N5100       N  0.84247561  0.96391192  0.00121145    -0.38600
C5101       C  0.86256471  0.85092651  0.74075524    -0.05300
C5102       C  0.88149585  0.84552879  0.73466244    -0.02400
C5103       C  0.89251598  0.85948716  0.72559890     0.02600
C5104       C  0.88598548  0.87890720  0.72708810    -0.05300
C5105       C  0.86589956  0.88217818  0.72628824    -0.02400
C5106       C  0.85392356  0.86741108  0.73248052     0.02600
C5107       C  0.88992747  0.82647648  0.73811793     0.37300
C5108       C  0.85806921  0.90104033  0.72133914     0.37200
C5109       C  0.83370978  0.86736342  0.72761284     0.35700
C5110       C  0.91144773  0.85464047  0.71786528     0.35700
N5111       N  0.81769541  0.86681279  0.72308581    -0.39200
N5112       N  0.92649827  0.85063740  0.71157628    -0.39200
N5113       N  0.85183926  0.91617435  0.71740380    -0.38600
N5114       N  0.89684174  0.81128372  0.74059612    -0.38600
C5115       C  0.84353313  0.74848410  0.87035479    -0.05300
C5116       C  0.85698928  0.73290427  0.87124175    -0.02400
C5117       C  0.86591896  0.72872393  0.88901043     0.02600
C5118       C  0.86142094  0.74057890  0.90527985    -0.05300
C5119       C  0.84349384  0.75059889  0.90530081    -0.02400
C5120       C  0.83527158  0.75589305  0.88761720     0.02600
C5121       C  0.86247863  0.72221427  0.85394745     0.37300
C5122       C  0.83460624  0.75677971  0.92326878     0.37200
C5123       C  0.81959034  0.77019819  0.88718610     0.35700
C5124       C  0.88065359  0.71352101  0.89022133     0.35700
N5125       N  0.80715196  0.78170465  0.88706080    -0.39200
N5126       N  0.89242703  0.70138559  0.89124666    -0.39200
N5127       N  0.82730641  0.76145220  0.93761559    -0.38600
N5128       N  0.86682001  0.71349514  0.84020586    -0.38600
C5129       C  0.76980099  0.87739585  0.83048416    -0.05300
C5130       C  0.75429782  0.87480021  0.84383397    -0.02400
C5131       C  0.74248881  0.89073247  0.84961128     0.02600
C5132       C  0.74740780  0.90930939  0.84403979    -0.05300
C5133       C  0.75807613  0.91086635  0.82694458    -0.02400
C5134       C  0.77090265  0.89565177  0.82145657     0.02600
C5135       C  0.75106903  0.85655342  0.85323721     0.37300
C5136       C  0.75735574  0.92884565  0.81641914     0.37200
C5137       C  0.78611911  0.89981113  0.80805482     0.35700
C5138       C  0.72671731  0.88849801  0.86305540     0.35700
N5139       N  0.79866851  0.90380317  0.79806926    -0.39200
N5140       N  0.71421055  0.88680058  0.87386143    -0.39200
N5141       N  0.75670644  0.94301132  0.80773550    -0.38600
N5142       N  0.74817013  0.84226618  0.86108101    -0.38600
C5143       C  0.78354332  0.87785197  0.75702491    -0.05300
C5144       C  0.76346487  0.88169679  0.75541202    -0.02400
C5145       C  0.75612687  0.90101602  0.75302868     0.02600
C5146       C  0.76875881  0.91667508  0.75128596    -0.05300
C5147       C  0.78871645  0.91263716  0.75105851    -0.02400
C5148       C  0.79603819  0.89390121  0.75503780     0.02600
C5149       C  0.75020635  0.86616338  0.75803858     0.37300
C5150       C  0.80203248  0.92792654  0.74687294     0.37200
C5151       C  0.81645031  0.89234326  0.75949212     0.35700
C5152       C  0.73552838  0.90491296  0.75361911     0.35700
N5153       N  0.83255638  0.89207231  0.76374668    -0.39200
N5154       N  0.71907566  0.90802080  0.75426961    -0.39200
N5155       N  0.81274450  0.93993610  0.74346850    -0.38600
N5156       N  0.73951761  0.85383671  0.76017273    -0.38600
C5157       C  0.88090216  0.73835277  0.78928947    -0.05300
C5158       C  0.88635453  0.73018735  0.77125736    -0.02400
C5159       C  0.90574961  0.72441004  0.76753936     0.02600
C5160       C  0.92004566  0.72690461  0.78181216    -0.05300
C5161       C  0.91427936  0.73331482  0.80041776    -0.02400
C5162       C  0.89489148  0.73915463  0.80409301     0.02600
C5163       C  0.87228774  0.72958169  0.75583700     0.37300
C5164       C  0.92854293  0.73480013  0.81562273     0.37200
C5165       C  0.89003740  0.74793347  0.82257743     0.35700
C5166       C  0.91117569  0.71771256  0.74837115     0.35700
N5167       N  0.88682961  0.75486574  0.83752395    -0.39200
N5168       N  0.91539544  0.71245328  0.73301785    -0.39200
N5169       N  0.93994215  0.73607626  0.82768991    -0.38600
N5170       N  0.86110859  0.72931747  0.74349606    -0.38600
C5171       C  0.77228848  0.75580369  0.85911541    -0.05300
C5172       C  0.78289895  0.74278647  0.87088298    -0.02400
C5173       C  0.77934900  0.74256876  0.89095991     0.02600
C5174       C  0.76501994  0.75509441  0.89908296    -0.05300
C5175       C  0.75260344  0.76570829  0.88686670    -0.02400
C5176       C  0.75557324  0.76511342  0.86688679     0.02600
C5177       C  0.79711656  0.72948136  0.86242868     0.37300
C5178       C  0.73712506  0.77784280  0.89495281     0.37200
C5179       C  0.74170382  0.77457253  0.85425709     0.35700
C5180       C  0.79047326  0.72968309  0.90324950     0.35700
N5181       N  0.73047885  0.78194465  0.84424262    -0.39200
N5182       N  0.79930519  0.71937312  0.91307791    -0.39200
N5183       N  0.72494387  0.78763702  0.90149925    -0.38600
N5184       N  0.80815934  0.71848478  0.85571523    -0.38600
loop_ 
_geom_bond_atom_site_label_1 
_geom_bond_atom_site_label_2 
_geom_bond_distance 
_geom_bond_site_symmetry_2 
_ccdc_geom_bond_type 
Zr1           O2   2.436       .  S
Zr1           O3   2.434       .  S
Zr1           O4   2.502       .  S
Zr1           O7   2.453       .  S
Zr1           O9   2.364       .  S
Zr1          O10   2.379       .  S
Zr1          O11   2.430       .  S
Zr1          O12   2.444       .  S
O2           H58   0.990       .  S
O2           H66   0.990       .  S
O3           C23   1.284       .  A
O4           C25   1.296       .  A
O5          Zr15   2.397       .  S
O5           C24   1.280       .  A
O6          Zr14   2.391       .  S
O6           C25   1.276       .  A
O7           C24   1.288       .  A
O8          Zr16   2.432       .  S
O8           C23   1.286       .  A
O9          Zr14   2.370       .  S
O9          Zr16   2.367       .  S
O10         Zr15   2.346       .  S
O10         Zr16   2.362       .  S
O10          H45   0.963       .  S
O11         Zr14   2.385       .  S
O11         Zr31   2.453       .  S
O11          H48   0.966       .  S
O12         Zr15   2.387       .  S
O12         Zr31   2.439       .  S
Zr13         O38   2.431       .  S
Zr13         O32   2.334       .  S
Zr13         O40   2.479       .  S
Zr13         O28   2.495       .  S
Zr13         O19   2.390       .  S
Zr13         O20   2.392       .  S
Zr13         O21   2.366       .  S
Zr13         O22   2.379       .  S
Zr14         O33   2.438       .  S
Zr14         O26   2.437       .  S
Zr14         O27   2.369       .  S
Zr14         O20   2.402       .  S
Zr14         O21   2.375       .  S
Zr15         O17   2.433       .  S
Zr15         O39   2.438       .  S
Zr15         O41   2.379       .  S
Zr15         O19   2.394       .  S
Zr15         O22   2.364       .  S
Zr16         O42   2.436       .  S
Zr16         O43   2.435       .  S
Zr16         O18   2.434       .  S
Zr16         O19   2.392       .  S
Zr16         O20   2.394       .  S
O17          H54   0.990       .  S
O18          H49   0.989       .  S
O18          H63   0.989       .  S
O20          H46   0.966       .  S
O21         Zr31   2.337       .  S
O22         Zr31   2.332       .  S
O22          H47   0.964       .  S
C23        C5115   1.473       .  S
C24        C5171   1.492       .  S
C25        C5157   1.492       .  S
O26          H62   0.990       .  S
O27          C29   1.272       .  A
O28          C29   1.300       .  A
C29        C5101   1.479       .  S
O30         Zr31   2.435       .  S
O30          H59   0.990       .  S
Zr31         O34   2.435       .  S
Zr31         O35   2.436       .  S
Zr31         O36   2.567       .  S
O32          C37   1.266       .  A
O33          H50   0.990       .  S
O33          H65   0.990       .  S
O34          H51   0.990       .  S
O35          H55   0.990       .  S
O35          H64   0.990       .  S
O36          C37   1.311       .  A
C37        C5143   1.518       .  S
O38          H57   0.990       .  S
O38          H61   0.990       .  S
O39          H53   0.990       .  S
O39          H60   0.990       .  S
O40          C44   1.295       .  A
O41          C44   1.273       .  A
O42          H52   0.990       .  S
O43          H56   0.990       .  S
C44        C5129   1.504       .  S
Zr67         O68   2.434       .  S
Zr67         O69   2.403       .  S
Zr67         O70   2.503       .  S
Zr67         O73   2.510       .  S
Zr67         O75   2.388       .  S
Zr67         O76   2.393       .  S
Zr67         O77   2.431       .  S
Zr67         O78   2.430       .  S
O68         H124   0.990       .  S
O68         H132   0.990       .  S
O69          C89   1.278       .  A
O70          C91   1.298       .  A
O71         Zr81   2.420       .  S
O71          C90   1.282       .  A
O72         Zr80   2.397       .  S
O72          C91   1.277       .  A
O73          C90   1.300       .  A
O74         Zr82   2.429       .  S
O74          C89   1.284       .  A
O75         Zr80   2.395       .  S
O75         Zr82   2.367       .  S
O76         Zr81   2.404       .  S
O76         Zr82   2.347       .  S
O76         H111   0.964       .  S
O77         Zr80   2.413       .  S
O77         Zr97   2.434       .  S
O77         H114   0.966       .  S
O78         Zr81   2.395       .  S
O78         Zr97   2.422       .  S
Zr79        O104   2.436       .  S
Zr79         O98   2.389       .  S
Zr79        O106   2.412       .  S
Zr79         O94   2.381       .  S
Zr79         O85   2.394       .  S
Zr79         O86   2.408       .  S
Zr79         O87   2.373       .  S
Zr79         O88   2.393       .  S
Zr80         O99   2.433       .  S
Zr80         O92   2.435       .  S
Zr80         O93   2.463       .  S
Zr80         O86   2.395       .  S
Zr80         O87   2.364       .  S
Zr81         O83   2.436   1_565  S
Zr81        O105   2.443       .  S
Zr81        O107   2.430       .  S
Zr81         O85   2.396       .  S
Zr81         O88   2.372       .  S
Zr82        O108   2.435       .  S
Zr82        O109   2.438       .  S
Zr82         O84   2.437       .  S
Zr82         O85   2.379       .  S
Zr82         O86   2.370       .  S
O83         H120   0.990       .  S
O84         H115   0.989       .  S
O84         H129   0.990       .  S
O86         H112   0.963       .  S
O87         Zr97   2.397       .  S
O88         Zr97   2.393       .  S
O88         H113   0.964       .  S
C89        C5031   1.475       .  S
C90        C5087   1.511       .  S
C91        C5073   1.498       .  S
O92         H128   0.991       .  S
O93          C95   1.290       .  A
O94          C95   1.276       .  A
C95        C5132   1.487       .  S
O96         Zr97   2.435       .  S
O96         H125   0.990       .  S
Zr97        O100   2.434       .  S
Zr97        O101   2.437   1_565  S
Zr97        O102   2.470   1_565  S
O98         C103   1.261       .  A
O99         H116   0.990       .  S
O99         H131   0.990       .  S
O100        H117   0.990       .  S
O101        H121   0.990       .  S
O101        H130   0.990       .  S
O102        C103   1.272   1_545  A
C103       C5059   1.488   1_565  S
O104        H123   0.984       .  S
O104        H127   0.987       .  S
O105        H119   0.990   1_565  S
O105        H126   0.989       .  S
O106        C110   1.276       .  A
O107        C110   1.284       .  A
O108        H118   0.991       .  S
O109        H122   0.990       .  S
C110       C5045   1.466       .  S
Zr133       O134   2.435       .  S
Zr133       O135   2.444       .  S
Zr133       O136   2.453       .  S
Zr133       O139   2.452       .  S
Zr133       O141   2.379       .  S
Zr133       O142   2.376       .  S
Zr133       O143   2.425       .  S
Zr133       O144   2.425       .  S
O134        H190   0.990   1_655  S
O134        H198   0.990       .  S
O135        C155   1.285       .  A
O136        C157   1.288       .  A
O137       Zr147   2.415       .  S
O137        C156   1.282       .  A
O138       Zr146   2.415       .  S
O138        C157   1.281       .  A
O139        C156   1.288       .  A
O140       Zr148   2.424       .  S
O140        C155   1.284       .  A
O141       Zr146   2.381       .  S
O141       Zr148   2.374       .  S
O142       Zr147   2.375       .  S
O142       Zr148   2.363       .  S
O142        H177   0.964       .  S
O143       Zr146   2.386       .  S
O143       Zr163   2.431       .  S
O143        H180   0.966       .  S
O144       Zr147   2.387       .  S
O144       Zr163   2.434       .  S
Zr145       O170   2.429       .  S
Zr145       O164   2.376       .  S
Zr145       O172   2.428       .  S
Zr145       O160   2.416       .  S
Zr145       O151   2.381       .  S
Zr145       O152   2.399       .  S
Zr145       O153   2.374       .  S
Zr145       O154   2.372       .  S
Zr146       O165   2.435       .  S
Zr146       O158   2.436       .  S
Zr146       O159   2.418       .  S
Zr146       O152   2.394       .  S
Zr146       O153   2.373       .  S
Zr147       O149   2.432       .  S
Zr147       O171   2.440       .  S
Zr147       O173   2.412       .  S
Zr147       O151   2.393       .  S
Zr147       O154   2.377       .  S
Zr148       O174   2.435       .  S
Zr148       O175   2.440       .  S
Zr148       O150   2.439       .  S
Zr148       O151   2.391       .  S
Zr148       O152   2.390       .  S
O149        H186   0.990       .  S
O150        H181   0.990       .  S
O150        H195   0.990       .  S
O152        H178   0.966       .  S
O153       Zr163   2.346       .  S
O154       Zr163   2.355       .  S
O154        H179   0.966       .  S
C155       C4975   1.488       .  S
C156       C5003   1.495       .  S
C157       C5017   1.481       .  S
O158        H194   0.990       .  S
O159        C161   1.284       .  A
O160        C161   1.283       .  A
C161       C5048   1.484       .  S
O162       Zr163   2.436       .  S
O162        H191   0.990       .  S
Zr163       O166   2.436       .  S
Zr163       O167   2.438       .  S
Zr163       O168   2.527       .  S
O164        C169   1.273       .  A
O165        H182   0.990       .  S
O165        H197   0.990       .  S
O166        H183   0.990       .  S
O167        H187   0.990       .  S
O167        H196   0.990       .  S
O168        C169   1.301       .  A
C169       C4989   1.503       .  S
O170        H189   0.990       .  S
O170        H193   0.990       .  S
O171        H185   0.990       .  S
O171        H192   0.990       .  S
O172        C176   1.287       .  A
O173        C176   1.282       .  A
O174        H184   0.990       .  S
O175        H188   0.990       .  S
C176       C5104   1.480       .  S
Zr199       O200   2.438       .  S
Zr199       O201   2.393       .  S
Zr199       O202   2.444       .  S
Zr199       O205   2.437       .  S
Zr199       O207   2.382       .  S
Zr199       O208   2.394       .  S
Zr199       O209   2.405       .  S
Zr199       O210   2.379       .  S
O200        H256   0.989       .  S
O200        H264   0.990       .  S
O201        C221   1.271       .  A
O202        C223   1.288       .  A
O203       Zr213   2.415       .  S
O203        C222   1.280       .  A
O204       Zr212   2.411       .  S
O204        C223   1.280       .  A
O205        C222   1.285       .  A
O206       Zr214   2.455       .  S
O206        C221   1.282       .  A
O207       Zr212   2.377       .  S
O207       Zr214   2.370       .  S
O208       Zr213   2.377       .  S
O208       Zr214   2.389       .  S
O208        H243   0.966       .  S
O209       Zr212   2.400       .  S
O209       Zr229   2.388       .  S
O209        H246   0.966       .  S
O210       Zr213   2.379       .  S
O210       Zr229   2.368       .  S
Zr211       O236   2.436       .  S
Zr211       O230   2.453       .  S
Zr211       O238   2.436       .  S
Zr211       O226   2.418       .  S
Zr211       O217   2.409       .  S
Zr211       O218   2.416       .  S
Zr211       O219   2.377       .  S
Zr211       O220   2.383       .  S
Zr212       O231   2.441       .  S
Zr212       O224   2.433       .  S
Zr212       O225   2.408       .  S
Zr212       O218   2.392       .  S
Zr212       O219   2.377       .  S
Zr213       O215   2.438       .  S
Zr213       O237   2.437       .  S
Zr213       O239   2.395       .  S
Zr213       O217   2.381       .  S
Zr213       O220   2.395       .  S
Zr214       O240   2.436   1_556  S
Zr214       O241   2.435       .  S
Zr214       O216   2.442       .  S
Zr214       O217   2.419       .  S
Zr214       O218   2.413       .  S
O215        H252   0.990       .  S
O216        H247   0.990       .  S
O216        H261   0.989       .  S
O218        H244   0.966       .  S
O219       Zr229   2.357       .  S
O220       Zr229   2.385       .  S
O220        H245   0.965       .  S
C221       C4947   1.473       .  S
C222       C5034   1.469       .  S
C223       C5118   1.495       .  S
O224        H260   0.990       .  S
O225        C227   1.282       .  A
O226        C227   1.282       .  A
C227       C4933   1.486       .  S
O228       Zr229   2.438       .  S
O228        H257   0.990       .  S
Zr229       O232   2.435       .  S
Zr229       O233   2.438       .  S
Zr229       O234   2.398       .  S
O230        C235   1.286       .  A
O231        H248   0.990       .  S
O231        H263   0.990       .  S
O232        H249   0.990       .  S
O233        H253   0.991       .  S
O233        H262   0.990       .  S
O234        C235   1.279       .  A
C235       C4978   1.480       .  S
O236        H255   0.990       .  S
O236        H259   0.990       .  S
O237        H251   0.990   1_556  S
O237        H258   0.990   1_556  S
O238        C242   1.283       .  A
O239        C242   1.276       .  A
O240        H250   0.990       .  S
O241        H254   0.990       .  S
C242       C4961   1.465       .  S
Zr265       O266   2.434       .  S
Zr265       O267   2.410       .  S
Zr265       O268   2.528       .  S
Zr265       O271   2.494       .  S
Zr265       O273   2.349       .  S
Zr265       O274   2.381       .  S
Zr265       O275   2.437       .  S
Zr265       O276   2.421       .  S
O266        H322   0.990       .  S
O266        H330   0.990       .  S
O267        C287   1.280       .  A
O268        C289   1.302       .  A
O269       Zr279   2.403       .  S
O269        C288   1.278       .  A
O270       Zr278   2.423       .  S
O270        C289   1.284       .  A
O271        C288   1.297       .  A
O272       Zr280   2.445       .  S
O272        C287   1.288       .  A
O273       Zr278   2.370       .  S
O273       Zr280   2.330       .  S
O274       Zr279   2.362       .  S
O274       Zr280   2.376       .  S
O274        H309   0.965       .  S
O275       Zr278   2.405       .  S
O275       Zr295   2.432       .  S
O275        H312   0.966       .  S
O276       Zr279   2.391       .  S
O276       Zr295   2.418       .  S
Zr277       O302   2.441       .  S
Zr277       O296   2.423       .  S
Zr277       O304   2.421       .  S
Zr277       O292   2.434       .  S
Zr277       O283   2.421       .  S
Zr277       O284   2.404       .  S
Zr277       O285   2.384       .  S
Zr277       O286   2.408       .  S
Zr278       O297   2.439   1_556  S
Zr278       O290   2.438   1_556  S
Zr278       O291   2.433   1_556  S
Zr278       O284   2.416       .  S
Zr278       O285   2.377       .  S
Zr279       O281   2.435       .  S
Zr279       O303   2.434       .  S
Zr279       O305   2.407       .  S
Zr279       O283   2.393       .  S
Zr279       O286   2.384       .  S
Zr280       O306   2.437       .  S
Zr280       O307   2.435       .  S
Zr280       O282   2.438       .  S
Zr280       O283   2.374       .  S
Zr280       O284   2.418       .  S
O281        H318   0.990       .  S
O282        H313   0.990       .  S
O282        H327   0.989       .  S
O284        H310   0.965       .  S
O285       Zr295   2.384       .  S
O286       Zr295   2.372       .  S
O286        H311   0.966       .  S
C287       C4849   1.488       .  S
C288       C4891   1.497       .  S
C289       C4919   1.516       .  S
O290        H326   0.989       .  S
O291        C293   1.282       .  A
O292        C293   1.285   1_556  A
C293       C4877   1.481       .  S
O294       Zr295   2.440       .  S
O294        H323   0.990       .  S
Zr295       O298   2.438       .  S
Zr295       O299   2.438       .  S
Zr295       O300   2.469       .  S
O296        C301   1.285       .  A
O297        H314   0.990       .  S
O297        H329   0.990       .  S
O298        H315   0.990       .  S
O299        H319   0.990       .  S
O299        H328   0.990       .  S
O300        C301   1.290       .  A
C301       C4905   1.500       .  S
O302        H321   0.990       .  S
O302        H325   0.990       .  S
O303        H317   0.988       .  S
O303        H324   0.989       .  S
O304        C308   1.272       .  A
O305        C308   1.271       .  A
O306        H316   0.990       .  S
O307        H320   0.990       .  S
C308       C4863   1.481       .  S
Zr331       O332   2.435       .  S
Zr331       O333   2.435       .  S
Zr331       O334   2.509       .  S
Zr331       O337   2.475       .  S
Zr331       O339   2.390       .  S
Zr331       O340   2.413       .  S
Zr331       O341   2.425       .  S
Zr331       O342   2.447       .  S
O332        H388   0.990       .  S
O332        H396   0.990       .  S
O333        C353   1.284       .  A
O334        C355   1.300       .  A
O335       Zr345   2.382       .  S
O335        C354   1.278       .  A
O336       Zr344   2.423       .  S
O336        C355   1.284       .  A
O337        C354   1.294       .  A
O338       Zr346   2.381       .  S
O338        C353   1.275       .  A
O339       Zr344   2.396       .  S
O339       Zr346   2.362       .  S
O340       Zr345   2.398       .  S
O340       Zr346   2.379       .  S
O340        H375   0.966       .  S
O341       Zr344   2.397       .  S
O341       Zr361   2.437       .  S
O341        H378   0.966       .  S
O342       Zr345   2.380       .  S
O342       Zr361   2.438       .  S
Zr343       O368   2.442       .  S
Zr343       O362   2.353       .  S
Zr343       O370   2.385       .  S
Zr343       O358   2.388       .  S
Zr343       O349   2.325       .  S
Zr343       O350   2.380       .  S
Zr343       O351   2.348       .  S
Zr343       O352   2.376       .  S
Zr344       O363   2.432       .  S
Zr344       O356   2.434       .  S
Zr344       O357   2.417       .  S
Zr344       O350   2.414       .  S
Zr344       O351   2.387       .  S
Zr345       O347   2.433       .  S
Zr345       O369   2.436       .  S
Zr345       O371   2.436       .  S
Zr345       O349   2.345       .  S
Zr345       O352   2.384       .  S
Zr346       O372   2.437       .  S
Zr346       O373   2.436       .  S
Zr346       O348   2.437       .  S
Zr346       O349   2.348       .  S
Zr346       O350   2.383       .  S
O347        H384   0.990       .  S
O348        H379   0.990       .  S
O348        H393   0.990       .  S
O350        H376   0.966       .  S
O351       Zr361   2.373       .  S
O352       Zr361   2.395       .  S
O352        H377   0.966       .  S
C353       C4793   1.461       .  S
C354       C4821   1.497       .  S
C355       C4807   1.525       .  S
O356        H392   0.990       .  S
O357        C359   1.283       .  A
O358        C359   1.275       .  A
C359       C4779   1.476       .  S
O360       Zr361   2.440       .  S
O360        H389   0.991       .  S
Zr361       O364   2.437       .  S
Zr361       O365   2.440       .  S
Zr361       O366   2.499       .  S
O362        C367   1.270       .  A
O363        H380   0.990       .  S
O363        H395   0.989       .  S
O364        H381   0.990       .  S
O365        H385   0.989       .  S
O365        H394   0.990       .  S
O366        C367   1.295       .  A
C367       C4835   1.481       .  S
O368        H387   0.990       .  S
O368        H391   0.990       .  S
O369        H383   0.990       .  S
O369        H390   0.988       .  S
O370        C374   1.276       .  A
O371        C374   1.280       .  A
O372        H382   0.991       .  S
O373        H386   0.990       .  S
C374       C4852   1.483       .  S
Zr397       O398   2.434       .  S
Zr397       O399   2.473       .  S
Zr397       O400   2.461       .  S
Zr397       O403   2.474       .  S
Zr397       O405   2.386       .  S
Zr397       O406   2.388       .  S
Zr397       O407   2.436       .  S
Zr397       O408   2.439       .  S
O398        H454   0.990       .  S
O398        H462   0.990       .  S
O399        C419   1.289       .  A
O400        C421   1.289       .  A
O401       Zr411   2.424       .  S
O401        C420   1.276       .  A
O402       Zr410   2.386       .  S
O402        C421   1.276       .  A
O403        C420   1.289       .  A
O404       Zr412   2.365       .  S
O404        C419   1.271       .  A
O405       Zr410   2.398       .  S
O405       Zr412   2.360       .  S
O406       Zr411   2.425       .  S
O406       Zr412   2.388       .  S
O406        H441   0.963       .  S
O407       Zr410   2.393       .  S
O407       Zr427   2.416       .  S
O407        H444   0.966       .  S
O408       Zr411   2.389       .  S
O408       Zr427   2.418       .  S
Zr409       O434   2.445       .  S
Zr409       O428   2.382       .  S
Zr409       O436   2.473       .  S
Zr409       O424   2.432       .  S
Zr409       O415   2.333       .  S
Zr409       O416   2.409       .  S
Zr409       O417   2.384       .  S
Zr409       O418   2.395       .  S
Zr410       O429   2.432       .  S
Zr410       O422   2.432       .  S
Zr410       O423   2.430       .  S
Zr410       O416   2.402       .  S
Zr410       O417   2.370       .  S
Zr411       O413   2.444       .  S
Zr411       O435   2.443       .  S
Zr411       O437   2.446       .  S
Zr411       O415   2.347       .  S
Zr411       O418   2.390       .  S
Zr412       O438   2.436       .  S
Zr412       O439   2.434       .  S
Zr412       O414   2.440       .  S
Zr412       O415   2.332       .  S
Zr412       O416   2.379       .  S
O413        H450   0.991       .  S
O414        H445   0.990       .  S
O414        H459   0.990       .  S
O416        H442   0.964       .  S
O417       Zr427   2.383       .  S
O418       Zr427   2.385       .  S
O418        H443   0.965       .  S
C419       C4723   1.476       .  S
C420       C4765   1.490       .  S
C421       C4740   1.486       .  S
O422        H458   0.991       .  S
O423        C425   1.283       .  A
O424        C425   1.285       .  A
C425       C4796   1.484       .  S
O426       Zr427   2.437       .  S
O426        H455   0.990       .  S
Zr427       O430   2.436       .  S
Zr427       O431   2.439       .  S
Zr427       O432   2.446       .  S
O428        C433   1.273       .  A
O429        H446   0.990       .  S
O429        H461   0.989       .  S
O430        H447   0.990       .  S
O431        H451   0.990       .  S
O431        H460   0.990       .  S
O432        C433   1.284       .  A
C433       C4754   1.466       .  S
O434        H453   0.989       .  S
O434        H457   0.990       .  S
O435        H449   0.989       .  S
O435        H456   0.990       .  S
O436        C440   1.291       .  A
O437        C440   1.290       .  A
O438        H448   0.990       .  S
O439        H452   0.990       .  S
C440       C4866   1.491       .  S
Zr463       O464   2.434       .  S
Zr463       O465   2.417       .  S
Zr463       O466   2.485       .  S
Zr463       O469   2.488       .  S
Zr463       O471   2.379       .  S
Zr463       O472   2.385       .  S
Zr463       O473   2.433       .  S
Zr463       O474   2.429       .  S
O464        H520   0.990       .  S
O464        H528   0.990       .  S
O465        C485   1.280       .  A
O466        C487   1.290       .  A
O467       Zr477   2.408       .  S
O467        C486   1.282       .  A
O468       Zr476   2.403       .  S
O468        C487   1.271       .  A
O469        C486   1.296       .  A
O470       Zr478   2.452       .  S
O470        C485   1.286       .  A
O471       Zr476   2.397       .  S
O471       Zr478   2.370       .  S
O472       Zr477   2.391       .  S
O472       Zr478   2.356       .  S
O472        H507   0.965       .  S
O473       Zr476   2.397       .  S
O473       Zr493   2.423       .  S
O473        H510   0.966       .  S
O474       Zr477   2.397       .  S
O474       Zr493   2.434       .  S
Zr475       O500   2.432       .  S
Zr475       O494   2.369       .  S
Zr475       O502   2.406       .  S
Zr475       O490   2.409       .  S
Zr475       O481   2.395       .  S
Zr475       O482   2.383       .  S
Zr475       O483   2.372       .  S
Zr475       O484   2.375       .  S
Zr476       O495   2.438   1_556  S
Zr476       O488   2.433       .  S
Zr476       O489   2.425       .  S
Zr476       O482   2.393       .  S
Zr476       O483   2.367       .  S
Zr477       O479   2.432       .  S
Zr477       O501   2.438       .  S
Zr477       O503   2.443       .  S
Zr477       O481   2.402       .  S
Zr477       O484   2.368       .  S
Zr478       O504   2.439       .  S
Zr478       O505   2.435       .  S
Zr478       O480   2.448       .  S
Zr478       O481   2.386       .  S
Zr478       O482   2.405       .  S
O479        H516   0.989       .  S
O480        H511   0.990       .  S
O480        H525   0.990       .  S
O482        H508   0.964       .  S
O483       Zr493   2.359       .  S
O484       Zr493   2.344       .  S
O484        H509   0.965       .  S
C485       C4726   1.481       .  S
C486       C4681   1.512       .  S
C487       C4695   1.486       .  S
O488        H524   0.990       .  S
O489        C491   1.282       .  A
O490        C491   1.282       .  A
C491       C4880   1.491   1_556  S
O492       Zr493   2.437       .  S
O492        H521   0.990       .  S
Zr493       O496   2.435   1_556  S
Zr493       O497   2.439       .  S
Zr493       O498   2.506       .  S
O494        C499   1.273       .  A
O495        H512   0.990       .  S
O495        H527   0.990       .  S
O496        H513   0.990       .  S
O497        H517   0.990       .  S
O497        H526   0.990       .  S
O498        C499   1.297       .  A
C499       C4709   1.486       .  S
O500        H519   0.990       .  S
O500        H523   0.990       .  S
O501        H515   0.990       .  S
O501        H522   0.990       .  S
O502        C506   1.280       .  A
O503        C506   1.288       .  A
O504        H514   0.990       .  S
O505        H518   0.990       .  S
C506       C4782   1.491       .  S
Zr529       O530   2.435       .  S
Zr529       O531   2.424       .  S
Zr529       O532   2.487       .  S
Zr529       O535   2.445       .  S
Zr529       O537   2.373       .  S
Zr529       O538   2.394       .  S
Zr529       O539   2.418       .  S
Zr529       O540   2.418       .  S
O530        H586   0.990       .  S
O530        H594   0.990       .  S
O531        C551   1.281       .  A
O532        C553   1.292       .  A
O533       Zr543   2.406       .  S
O533        C552   1.279       .  A
O534       Zr542   2.403       .  S
O534        C553   1.275       .  A
O535        C552   1.289       .  A
O536       Zr544   2.424       .  S
O536        C551   1.284       .  A
O537       Zr542   2.390       .  S
O537       Zr544   2.359       .  S
O538       Zr543   2.379       .  S
O538       Zr544   2.368       .  S
O538        H573   0.965       .  S
O539       Zr542   2.412       .  S
O539       Zr559   2.428       .  S
O539        H576   0.966       .  S
O540       Zr543   2.397       .  S
O540       Zr559   2.401       .  S
Zr541       O566   2.446       .  S
Zr541       O560   2.406       .  S
Zr541       O568   2.437       .  S
Zr541       O556   2.406       .  S
Zr541       O547   2.398       .  S
Zr541       O548   2.417       .  S
Zr541       O549   2.373       .  S
Zr541       O550   2.393       .  S
Zr542       O561   2.434       .  S
Zr542       O554   2.432       .  S
Zr542       O555   2.440       .  S
Zr542       O548   2.398       .  S
Zr542       O549   2.375       .  S
Zr543       O545   2.434       .  S
Zr543       O567   2.442       .  S
Zr543       O569   2.421       .  S
Zr543       O547   2.376       .  S
Zr543       O550   2.367       .  S
Zr544       O570   2.435       .  S
Zr544       O571   2.438       .  S
Zr544       O546   2.437       .  S
Zr544       O547   2.371       .  S
Zr544       O548   2.398       .  S
O545        H582   0.990       .  S
O546        H577   0.990       .  S
O546        H591   0.990       .  S
O548        H574   0.964       .  S
O549       Zr559   2.394       .  S
O550       Zr559   2.405       .  S
O550        H575   0.963       .  S
C551       C4611   1.473       .  S
C552       C4639   1.491       .  S
C553       C4653   1.498       .  S
O554        H590   0.990       .  S
O555        C557   1.285       .  A
O556        C557   1.284       .  A
C557       C4597   1.486       .  S
O558       Zr559   2.435       .  S
O558        H587   0.990       .  S
Zr559       O562   2.437       .  S
Zr559       O563   2.439       .  S
Zr559       O564   2.438       .  S
O560        C565   1.266       .  A
O561        H578   0.990       .  S
O561        H593   0.990       .  S
O562        H579   0.990       .  S
O563        H583   0.990       .  S
O563        H592   0.990       .  S
O564        C565   1.271       .  A
C565       C4670   1.487       .  S
O566        H585   0.987       .  S
O566        H589   0.990       .  S
O567        H581   0.990       .  S
O567        H588   0.990       .  S
O568        C572   1.282       .  A
O569        C572   1.283       .  A
O570        H580   0.990       .  S
O571        H584   0.990       .  S
C572       C4625   1.481       .  S
Zr595       O596   2.435       .  S
Zr595       O597   2.427       .  S
Zr595       O598   2.467       .  S
Zr595       O601   2.490       .  S
Zr595       O603   2.387       .  S
Zr595       O604   2.392       .  S
Zr595       O605   2.424       .  S
Zr595       O606   2.420       .  S
O596        H652   0.990       .  S
O596        H660   0.990       .  S
O597        C617   1.281       .  A
O598        C619   1.292       .  A
O599       Zr609   2.422       .  S
O599        C618   1.282       .  A
O600       Zr608   2.394       .  S
O600        C619   1.279       .  A
O601        C618   1.296       .  A
O602       Zr610   2.427       .  S
O602        C617   1.285       .  A
O603       Zr608   2.383       .  S
O603       Zr610   2.368       .  S
O604       Zr609   2.394       .  S
O604       Zr610   2.355       .  S
O604        H639   0.963       .  S
O605       Zr608   2.410       .  S
O605       Zr625   2.403       .  S
O605        H642   0.966       .  S
O606       Zr609   2.414       .  S
O606       Zr625   2.439       .  S
Zr607       O632   2.435       .  S
Zr607       O626   2.369       .  S
Zr607       O634   2.354       .  S
Zr607       O622   2.396       .  S
Zr607       O613   2.383       .  S
Zr607       O614   2.379       .  S
Zr607       O615   2.362       .  S
Zr607       O616   2.375       .  S
Zr608       O627   2.431       .  S
Zr608       O620   2.434       .  S
Zr608       O621   2.437       .  S
Zr608       O614   2.380       .  S
Zr608       O615   2.361       .  S
Zr609       O611   2.435       .  S
Zr609       O633   2.440       .  S
Zr609       O635   2.464       .  S
Zr609       O613   2.384       .  S
Zr609       O616   2.367       .  S
Zr610       O636   2.438       .  S
Zr610       O637   2.437       .  S
Zr610       O612   2.436       .  S
Zr610       O613   2.394       .  S
Zr610       O614   2.382       .  S
O611        H648   0.990       .  S
O612        H643   0.990       .  S
O612        H657   0.990       .  S
O614        H640   0.966       .  S
O615       Zr625   2.361       .  S
O616       Zr625   2.365       .  S
O616        H641   0.965       .  S
C617       C4614   1.479       .  S
C618       C4586   1.500       .  S
C619       C4569   1.487       .  S
O620        H656   0.990       .  S
O621        C623   1.286       .  A
O622        C623   1.278       .  A
C623       C4544   1.488       .  S
O624       Zr625   2.434       .  S
O624        H653   0.990       .  S
Zr625       O628   2.436       .  S
Zr625       O629   2.439       .  S
Zr625       O630   2.504       .  S
O626        C631   1.264       .  A
O627        H644   0.990       .  S
O627        H659   0.989       .  S
O628        H645   0.990       .  S
O629        H649   0.990       .  S
O629        H658   0.990       .  S
O630        C631   1.292       .  A
C631       C4555   1.489       .  S
O632        H651   0.990       .  S
O632        H655   0.989       .  S
O633        H647   0.990       .  S
O633        H654   0.990       .  S
O634        C638   1.267       .  A
O635        C638   1.292       .  A
O636        H646   0.990       .  S
O637        H650   0.990       .  S
C638       C4530   1.485       .  S
Zr661       O662   2.434       .  S
Zr661       O663   2.402       .  S
Zr661       O664   2.461       .  S
Zr661       O667   2.476       .  S
Zr661       O669   2.369       .  S
Zr661       O670   2.380       .  S
Zr661       O671   2.421       .  S
Zr661       O672   2.407       .  S
O662        H718   0.990       .  S
O662        H726   0.990       .  S
O663        C683   1.279       .  A
O664        C685   1.290       .  A
O665       Zr675   2.400       .  S
O665        C684   1.279       .  A
O666       Zr674   2.449       .  S
O666        C685   1.287       .  A
O667        C684   1.293       .  A
O668       Zr676   2.441       .  S
O668        C683   1.287       .  A
O669       Zr674   2.370       .  S
O669       Zr676   2.351       .  S
O670       Zr675   2.374       .  S
O670       Zr676   2.369       .  S
O670        H705   0.966       .  S
O671       Zr674   2.407       .  S
O671       Zr691   2.438       .  S
O671        H708   0.966       .  S
O672       Zr675   2.393       .  S
O672       Zr691   2.415       .  S
Zr673       O698   2.440       .  S
Zr673       O692   2.395       .  S
Zr673       O700   2.424       .  S
Zr673       O688   2.388       .  S
Zr673       O679   2.400       .  S
Zr673       O680   2.409       .  S
Zr673       O681   2.376       .  S
Zr673       O682   2.381       .  S
Zr674       O693   2.438   1_545  S
Zr674       O686   2.438   1_545  S
Zr674       O687   2.450   1_545  S
Zr674       O680   2.418       .  S
Zr674       O681   2.389       .  S
Zr675       O677   2.434       .  S
Zr675       O699   2.438       .  S
Zr675       O701   2.405       .  S
Zr675       O679   2.385       .  S
Zr675       O682   2.376       .  S
Zr676       O702   2.435       .  S
Zr676       O703   2.439       .  S
Zr676       O678   2.439       .  S
Zr676       O679   2.386       .  S
Zr676       O680   2.394       .  S
O677        H714   0.990       .  S
O678        H709   0.990       .  S
O678        H723   0.990       .  S
O680        H706   0.963       .  S
O681       Zr691   2.389       .  S
O682       Zr691   2.386       .  S
O682        H707   0.965       .  S
C683       C4628   1.500       .  S
C684       C4502   1.487       .  S
C685       C4516   1.513       .  S
O686        H722   0.990       .  S
O687        C689   1.287       .  A
O688        C689   1.279   1_545  A
C689       C4471   1.487       .  S
O690       Zr691   2.436       .  S
O690        H719   0.990       .  S
Zr691       O694   2.436   1_545  S
Zr691       O695   2.436       .  S
Zr691       O696   2.483       .  S
O692        C697   1.263       .  A
O693        H710   0.990       .  S
O693        H725   0.990       .  S
O694        H711   0.990       .  S
O695        H715   0.990       .  S
O695        H724   0.990       .  S
O696        C697   1.282       .  A
C697       C4485   1.503       .  S
O698        H717   0.989       .  S
O698        H721   0.989       .  S
O699        H713   0.990       .  S
O699        H720   0.990       .  S
O700        C704   1.283       .  A
O701        C704   1.281       .  A
O702        H712   0.990       .  S
O703        H716   0.990       .  S
C704       C4541   1.478       .  S
Zr727       O728   2.435       .  S
Zr727       O729   2.429       .  S
Zr727       O730   2.498       .  S
Zr727       O733   2.486       .  S
Zr727       O735   2.375       .  S
Zr727       O736   2.385       .  S
Zr727       O737   2.422       .  S
Zr727       O738   2.428       .  S
O728        H784   0.990       .  S
O728        H792   0.990       .  S
O729        C749   1.283       .  A
O730        C751   1.297       .  A
O731       Zr741   2.408       .  S
O731        C750   1.280       .  A
O732       Zr740   2.394       .  S
O732        C751   1.279       .  A
O733        C750   1.295       .  A
O734       Zr742   2.419       .  S
O734        C749   1.280       .  A
O735       Zr740   2.372       .  S
O735       Zr742   2.372       .  S
O736       Zr741   2.380       .  S
O736       Zr742   2.373       .  S
O736        H771   0.966       .  S
O737       Zr740   2.383       .  S
O737       Zr757   2.424       .  S
O737        H774   0.965       .  S
O738       Zr741   2.388       .  S
O738       Zr757   2.438       .  S
Zr739       O764   2.436       .  S
Zr739       O758   2.360       .  S
Zr739       O766   2.471       .  S
Zr739       O754   2.453       .  S
Zr739       O745   2.392       .  S
Zr739       O746   2.399       .  S
Zr739       O747   2.378       .  S
Zr739       O748   2.380       .  S
Zr740       O759   2.436       .  S
Zr740       O752   2.436       .  S
Zr740       O753   2.382       .  S
Zr740       O746   2.400       .  S
Zr740       O747   2.371       .  S
Zr741       O743   2.433   1_545  S
Zr741       O765   2.441       .  S
Zr741       O767   2.396       .  S
Zr741       O745   2.395       .  S
Zr741       O748   2.382       .  S
Zr742       O768   2.440       .  S
Zr742       O769   2.438       .  S
Zr742       O744   2.438       .  S
Zr742       O745   2.398       .  S
Zr742       O746   2.390       .  S
O743        H780   0.990       .  S
O744        H775   0.990       .  S
O744        H789   0.990       .  S
O746        H772   0.966       .  S
O747       Zr757   2.346       .  S
O748       Zr757   2.350       .  S
O748        H773   0.965       .  S
C749       C4600   1.470       .  S
C750       C4457   1.509       .  S
C751       C4446   1.509       .  S
O752        H788   0.990       .  S
O753        C755   1.274       .  A
O754        C755   1.290       .  A
C755       C4527   1.498       .  S
O756       Zr757   2.434       .  S
O756        H785   0.990       .  S
Zr757       O760   2.434       .  S
Zr757       O761   2.439   1_545  S
Zr757       O762   2.524       .  S
O758        C763   1.271       .  A
O759        H776   0.987       .  S
O759        H791   0.989       .  S
O760        H777   0.990       .  S
O761        H781   0.990       .  S
O761        H790   0.989       .  S
O762        C763   1.301       .  A
C763       C4429   1.491       .  S
O764        H783   0.990       .  S
O764        H787   0.990       .  S
O765        H779   0.990       .  S
O765        H786   0.990       .  S
O766        C770   1.293       .  A
O767        C770   1.277       .  A
O768        H778   0.990       .  S
O769        H782   0.990       .  S
C770       C4474   1.508       .  S
Zr793       O794   2.442       .  S
Zr793       O795   2.467       .  S
Zr793       O796   2.469       .  S
Zr793       O799   2.481       .  S
Zr793       O801   2.388       .  S
Zr793       O802   2.388       .  S
Zr793       O803   2.419       .  S
Zr793       O804   2.409       .  S
O794        H850   0.990       .  S
O794        H858   0.991       .  S
O795        C815   1.289       .  A
O796        C817   1.290       .  A
O797       Zr807   2.446       .  S
O797        C816   1.288       .  A
O798       Zr806   2.410       .  S
O798        C817   1.278       .  A
O799        C816   1.294       .  A
O800       Zr808   2.417       .  S
O800        C815   1.279       .  A
O801       Zr806   2.403       .  S
O801       Zr808   2.384       .  S
O802       Zr807   2.397       .  S
O802       Zr808   2.382       .  S
O802        H837   0.965       .  S
O803       Zr806   2.406       .  S
O803       Zr823   2.399       .  S
O803        H840   0.965       .  S
O804       Zr807   2.395       .  S
O804       Zr823   2.400       .  S
Zr805       O830   2.439       .  S
Zr805       O824   2.445       .  S
Zr805       O832   2.453       .  S
Zr805       O820   2.468       .  S
Zr805       O811   2.408       .  S
Zr805       O812   2.401       .  S
Zr805       O813   2.377       .  S
Zr805       O814   2.386       .  S
Zr806       O825   2.436       .  S
Zr806       O818   2.436       .  S
Zr806       O819   2.442       .  S
Zr806       O812   2.385       .  S
Zr806       O813   2.395       .  S
Zr807       O809   2.434       .  S
Zr807       O831   2.436       .  S
Zr807       O833   2.437       .  S
Zr807       O811   2.396       .  S
Zr807       O814   2.392       .  S
Zr808       O834   2.435       .  S
Zr808       O835   2.435       .  S
Zr808       O810   2.438       .  S
Zr808       O811   2.393       .  S
Zr808       O812   2.393       .  S
O809        H846   0.989       .  S
O810        H841   0.990       .  S
O810        H855   0.989       .  S
O812        H838   0.964       .  S
O813       Zr823   2.378       .  S
O814       Zr823   2.375       .  S
O814        H839   0.966       .  S
C815       C4684   1.490       .  S
C816       C4810   1.517       .  S
C817       C4737   1.480       .  S
O818        H854   0.990       .  S
O819        C821   1.285       .  A
O820        C821   1.292       .  A
C821       C4443   1.497       .  S
O822       Zr823   2.437       .  S
O822        H851   0.990       .  S
Zr823       O826   2.436       .  S
Zr823       O827   2.436       .  S
Zr823       O828   2.434       .  S
O824        C829   1.286       .  A
O825        H842   0.990       .  S
O825        H857   0.990       .  S
O826        H843   0.990       .  S
O827        H847   0.990       .  S
O827        H856   0.990       .  S
O828        C829   1.284       .  A
C829       C4656   1.520       .  S
O830        H849   0.989       .  S
O830        H853   0.990       .  S
O831        H845   0.990       .  S
O831        H852   0.989       .  S
O832        C836   1.290       .  A
O833        C836   1.285       .  A
O834        H844   0.990       .  S
O835        H848   0.990       .  S
C836       C4583   1.494       .  S
Zr859       O860   2.440       .  S
Zr859       O861   2.399       .  S
Zr859       O862   2.456       .  S
Zr859       O865   2.450       .  S
Zr859       O867   2.389       .  S
Zr859       O868   2.392       .  S
Zr859       O869   2.421       .  S
Zr859       O870   2.383       .  S
O860        H916   0.990       .  S
O860        H924   0.990       .  S
O861        C881   1.277       .  A
O862        C883   1.282       .  A
O863       Zr873   2.399       .  S
O863        C882   1.274       .  A
O864       Zr872   2.403       .  S
O864        C883   1.271       .  A
O865        C882   1.289       .  A
O866       Zr874   2.470       .  S
O866        C881   1.290       .  A
O867       Zr872   2.385       .  S
O867       Zr874   2.356       .  S
O868       Zr873   2.395       .  S
O868       Zr874   2.379       .  S
O868        H903   0.966       .  S
O869       Zr872   2.401       .  S
O869       Zr889   2.372       .  S
O869        H906   0.962       .  S
O870       Zr873   2.388       .  S
O870       Zr889   2.371       .  S
Zr871       O896   2.435       .  S
Zr871       O890   2.464       .  S
Zr871       O898   2.478       .  S
Zr871       O886   2.471       .  S
Zr871       O877   2.432       .  S
Zr871       O878   2.431       .  S
Zr871       O879   2.380       .  S
Zr871       O880   2.407       .  S
Zr872       O891   2.438       .  S
Zr872       O884   2.436       .  S
Zr872       O885   2.415       .  S
Zr872       O878   2.395       .  S
Zr872       O879   2.377       .  S
Zr873       O875   2.431       .  S
Zr873       O897   2.437       .  S
Zr873       O899   2.413       .  S
Zr873       O877   2.391       .  S
Zr873       O880   2.401       .  S
Zr874       O900   2.436       .  S
Zr874       O901   2.435       .  S
Zr874       O876   2.435       .  S
Zr874       O877   2.413       .  S
Zr874       O878   2.419       .  S
O875        H912   0.990       .  S
O876        H907   0.990       .  S
O876        H921   0.990       .  S
O878        H904   0.966       .  S
O879       Zr889   2.373       .  S
O880       Zr889   2.363       .  S
O880        H905   0.964       .  S
C881       C4418   1.490       .  S
C882       C4359   1.460       .  S
C883       C4373   1.495       .  S
O884        H920   0.990       .  S
O885        C887   1.283       .  A
O886        C887   1.293       .  A
C887       C4387   1.503       .  S
O888       Zr889   2.436       .  S
O888        H917   0.990       .  S
Zr889       O892   2.435       .  S
Zr889       O893   2.436       .  S
Zr889       O894   2.386       .  S
O890        C895   1.289       .  A
O891        H908   0.989       .  S
O891        H923   0.989       .  S
O892        H909   0.990       .  S
O893        H913   0.989       .  S
O893        H922   0.990       .  S
O894        C895   1.275       .  A
C895       C4345   1.475       .  S
O896        H915   0.990       .  S
O896        H919   0.990       .  S
O897        H911   0.990       .  S
O897        H918   0.990       .  S
O898        C902   1.290       .  A
O899        C902   1.272       .  A
O900        H910   0.990       .  S
O901        H914   0.990       .  S
C902       C4401   1.516       .  S
Zr925       O926   2.433       .  S
Zr925       O927   2.428       .  S
Zr925       O928   2.481       .  S
Zr925       O931   2.467       .  S
Zr925       O933   2.370       .  S
Zr925       O934   2.384       .  S
Zr925       O935   2.423       .  S
Zr925       O936   2.434       .  S
O926        H982   0.990       .  S
O926        H990   0.990       .  S
O927        C947   1.282       .  A
O928        C949   1.293       .  A
O929       Zr939   2.414       .  S
O929        C948   1.282       .  A
O930       Zr938   2.364       .  S
O930        C949   1.272       .  A
O931        C948   1.291       .  A
O932       Zr940   2.432       .  S
O932        C947   1.286       .  A
O933       Zr938   2.377       .  S
O933       Zr940   2.367       .  S
O934       Zr939   2.384       .  S
O934       Zr940   2.353       .  S
O934        H969   0.964       .  S
O935       Zr938   2.388       .  S
O935       Zr955   2.427       .  S
O935        H972   0.966       .  S
O936       Zr939   2.392       .  S
O936       Zr955   2.438       .  S
Zr937       O962   2.437       .  S
Zr937       O956   2.363       .  S
Zr937       O964   2.415       .  S
Zr937       O952   2.435       .  S
Zr937       O943   2.388       .  S
Zr937       O944   2.387       .  S
Zr937       O945   2.363       .  S
Zr937       O946   2.384       .  S
Zr938       O957   2.442       .  S
Zr938       O950   2.436       .  S
Zr938       O951   2.388       .  S
Zr938       O944   2.396       .  S
Zr938       O945   2.361       .  S
Zr939       O941   2.435       .  S
Zr939       O963   2.443       .  S
Zr939       O965   2.416       .  S
Zr939       O943   2.397       .  S
Zr939       O946   2.384       .  S
Zr940       O966   2.435       .  S
Zr940       O967   2.437       .  S
Zr940       O942   2.436       .  S
Zr940       O943   2.388       .  S
Zr940       O944   2.392       .  S
O941        H978   0.990       .  S
O942        H973   0.989       .  S
O942        H987   0.989       .  S
O944        H970   0.966       .  S
O945       Zr955   2.339       .  S
O946       Zr955   2.359       .  S
O946        H971   0.966       .  S
C947       C4348   1.484       .  S
C948       C4303   1.507       .  S
C949       C4317   1.473       .  S
O950        H986   0.990       .  S
O951        C953   1.272       .  A
O952        C953   1.286       .  A
C953       C4292   1.481       .  S
O954       Zr955   2.435       .  S
O954        H983   0.990       .  S
Zr955       O958   2.435       .  S
Zr955       O959   2.437       .  S
Zr955       O960   2.516       .  S
O956        C961   1.272       .  A
O957        H974   0.990       .  S
O957        H989   0.990       .  S
O958        H975   0.990       .  S
O959        H979   0.990       .  S
O959        H988   0.989       .  S
O960        C961   1.299       .  A
C961       C4334   1.490       .  S
O962        H981   0.990       .  S
O962        H985   0.990       .  S
O963        H977   0.990       .  S
O963        H984   0.990       .  S
O964        C968   1.284       .  A
O965        C968   1.281       .  A
O966        H976   0.990       .  S
O967        H980   0.990       .  S
C968       C4275   1.485       .  S
Zr991       O992   2.437   1_565  S
Zr991       O993   2.455       .  S
Zr991       O994   2.474       .  S
Zr991       O997   2.437       .  S
Zr991       O999   2.381       .  S
Zr991      O1000   2.382       .  S
Zr991      O1001   2.440       .  S
Zr991      O1002   2.438       .  S
O992       H1048   0.990       .  S
O992       H1056   0.990       .  S
O993       C1013   1.287       .  A
O994       C1015   1.282       .  A
O995      Zr1005   2.415       .  S
O995       C1014   1.283       .  A
O996      Zr1004   2.384       .  S
O996       C1015   1.262       .  A
O997       C1014   1.286       .  A
O998      Zr1006   2.422       .  S
O998       C1013   1.284       .  A
O999      Zr1004   2.389       .  S
O999      Zr1006   2.371       .  S
O1000     Zr1005   2.366       .  S
O1000     Zr1006   2.363       .  S
O1000      H1035   0.965       .  S
O1001     Zr1004   2.395       .  S
O1001     Zr1021   2.414       .  S
O1001      H1038   0.966       .  S
O1002     Zr1005   2.387       .  S
O1002     Zr1021   2.431       .  S
Zr1003     O1028   2.439       .  S
Zr1003     O1022   2.379       .  S
Zr1003     O1030   2.445       .  S
Zr1003     O1018   2.443       .  S
Zr1003     O1009   2.395       .  S
Zr1003     O1010   2.387       .  S
Zr1003     O1011   2.375       .  S
Zr1003     O1012   2.383       .  S
Zr1004     O1023   2.437       .  S
Zr1004     O1016   2.432       .  S
Zr1004     O1017   2.384       .  S
Zr1004     O1010   2.401       .  S
Zr1004     O1011   2.378       .  S
Zr1005     O1007   2.430       .  S
Zr1005     O1029   2.437       .  S
Zr1005     O1031   2.410       .  S
Zr1005     O1009   2.400       .  S
Zr1005     O1012   2.368       .  S
Zr1006     O1032   2.435       .  S
Zr1006     O1033   2.436       .  S
Zr1006     O1008   2.438       .  S
Zr1006     O1009   2.388       .  S
Zr1006     O1010   2.391       .  S
O1007      H1044   0.990       .  S
O1008      H1039   0.989       .  S
O1008      H1053   0.989       .  S
O1010      H1036   0.966       .  S
O1011     Zr1021   2.364       .  S
O1012     Zr1021   2.334       .  S
O1012      H1037   0.963       .  S
C1013      C4219   1.483       .  S
C1014      C4247   1.484       .  S
C1015      C4261   1.502       .  S
O1016      H1052   0.989       .  S
O1017      C1019   1.273       .  A
O1018      C1019   1.290       .  A
C1019      C4289   1.473       .  S
O1020     Zr1021   2.435       .  S
O1020      H1049   0.990       .  S
Zr1021     O1024   2.436       .  S
Zr1021     O1025   2.439       .  S
Zr1021     O1026   2.515       .  S
O1022      C1027   1.272       .  A
O1023      H1040   0.990       .  S
O1023      H1055   0.990       .  S
O1024      H1041   0.990       .  S
O1025      H1045   0.990       .  S
O1025      H1054   0.990       .  S
O1026      C1027   1.298       .  A
C1027      C4233   1.493       .  S
O1028      H1047   0.990       .  S
O1028      H1051   0.990       .  S
O1029      H1043   0.990       .  S
O1029      H1050   0.990       .  S
O1030      C1034   1.289       .  A
O1031      C1034   1.283       .  A
O1032      H1042   0.990       .  S
O1033      H1046   0.990       .  S
C1034      C4362   1.487       .  S
Zr1057     O1058   2.442       .  S
Zr1057     O1059   2.414       .  S
Zr1057     O1060   2.433       .  S
Zr1057     O1063   2.452       .  S
Zr1057     O1065   2.396       .  S
Zr1057     O1066   2.389       .  S
Zr1057     O1067   2.430       .  S
Zr1057     O1068   2.398       .  S
O1058      H1114   0.990       .  S
O1058      H1122   0.990       .  S
O1059      C1079   1.278       .  A
O1060      C1081   1.279       .  A
O1061     Zr1071   2.388       .  S
O1061      C1080   1.274       .  A
O1062     Zr1070   2.422       .  S
O1062      C1081   1.276       .  A
O1063      C1080   1.287       .  A
O1064     Zr1072   2.489       .  S
O1064      C1079   1.292       .  A
O1065     Zr1070   2.393       .  S
O1065     Zr1072   2.356       .  S
O1066     Zr1071   2.402       .  S
O1066     Zr1072   2.382       .  S
O1066      H1101   0.966       .  S
O1067     Zr1070   2.403       .  S
O1067     Zr1087   2.353       .  S
O1067      H1104   0.961       .  S
O1068     Zr1071   2.407       .  S
O1068     Zr1087   2.401       .  S
Zr1069     O1094   2.436   1_565  S
Zr1069     O1088   2.434       .  S
Zr1069     O1096   2.512       .  S
Zr1069     O1084   2.486       .  S
Zr1069     O1075   2.430       .  S
Zr1069     O1076   2.440       .  S
Zr1069     O1077   2.385       .  S
Zr1069     O1078   2.398       .  S
Zr1070     O1089   2.438       .  S
Zr1070     O1082   2.434       .  S
Zr1070     O1083   2.426       .  S
Zr1070     O1076   2.405       .  S
Zr1070     O1077   2.372       .  S
Zr1071     O1073   2.436       .  S
Zr1071     O1095   2.435       .  S
Zr1071     O1097   2.434       .  S
Zr1071     O1075   2.390       .  S
Zr1071     O1078   2.384       .  S
Zr1072     O1098   2.437       .  S
Zr1072     O1099   2.436       .  S
Zr1072     O1074   2.436       .  S
Zr1072     O1075   2.437       .  S
Zr1072     O1076   2.419       .  S
O1073      H1110   0.990       .  S
O1074      H1105   0.990       .  S
O1074      H1119   0.989       .  S
O1076      H1102   0.966       .  S
O1077     Zr1087   2.368       .  S
O1078     Zr1087   2.339       .  S
O1078      H1103   0.957       .  S
C1079      C4177   1.504       .  S
C1080      C4278   1.471       .  S
C1081      C4376   1.497       .  S
O1082      H1118   0.989       .  S
O1083      C1085   1.284       .  A
O1084      C1085   1.297       .  A
C1085      C4191   1.511       .  S
O1086     Zr1087   2.436       .  S
O1086      H1115   0.990       .  S
Zr1087     O1090   2.436       .  S
Zr1087     O1091   2.441       .  S
Zr1087     O1092   2.441       .  S
O1088      C1093   1.283       .  A
O1089      H1106   0.990       .  S
O1089      H1121   0.988       .  S
O1090      H1107   0.990       .  S
O1091      H1111   0.989       .  S
O1091      H1120   0.989       .  S
O1092      C1093   1.288       .  A
C1093      C4222   1.481       .  S
O1094      H1113   0.990       .  S
O1094      H1117   0.990       .  S
O1095      H1109   0.990       .  S
O1095      H1116   0.990       .  S
O1096      C1100   1.297       .  A
O1097      C1100   1.278       .  A
O1098      H1108   0.990       .  S
O1099      H1112   0.990       .  S
C1100      C4205   1.520   1_565  S
Zr1123     O1124   2.440       .  S
Zr1123     O1125   2.401       .  S
Zr1123     O1126   2.447       .  S
Zr1123     O1129   2.436       .  S
Zr1123     O1131   2.382       .  S
Zr1123     O1132   2.414       .  S
Zr1123     O1133   2.405       .  S
Zr1123     O1134   2.402       .  S
O1124      H1180   0.990       .  S
O1124      H1188   0.990       .  S
O1125      C1145   1.265       .  A
O1126      C1147   1.289       .  A
O1127     Zr1137   2.417       .  S
O1127      C1146   1.284       .  A
O1128     Zr1136   2.438       .  S
O1128      C1147   1.284       .  A
O1129      C1146   1.284       .  A
O1130     Zr1138   2.465       .  S
O1130      C1145   1.279       .  A
O1131     Zr1136   2.358       .  S
O1131     Zr1138   2.392       .  S
O1132     Zr1137   2.388       .  S
O1132     Zr1138   2.390       .  S
O1132      H1167   0.966       .  S
O1133     Zr1136   2.398       .  S
O1133     Zr1153   2.350       .  S
O1133      H1170   0.959       .  S
O1134     Zr1137   2.384       .  S
O1134     Zr1153   2.356       .  S
Zr1135     O1160   2.438       .  S
Zr1135     O1154   2.482       .  S
Zr1135     O1162   2.458       .  S
Zr1135     O1150   2.453       .  S
Zr1135     O1141   2.430       .  S
Zr1135     O1142   2.432       .  S
Zr1135     O1143   2.385       .  S
Zr1135     O1144   2.382       .  S
Zr1136     O1155   2.446       .  S
Zr1136     O1148   2.431       .  S
Zr1136     O1149   2.377       .  S
Zr1136     O1142   2.393       .  S
Zr1136     O1143   2.402       .  S
Zr1137     O1139   2.438       .  S
Zr1137     O1161   2.434       .  S
Zr1137     O1163   2.422       .  S
Zr1137     O1141   2.391       .  S
Zr1137     O1144   2.387       .  S
Zr1138     O1164   2.435       .  S
Zr1138     O1165   2.437       .  S
Zr1138     O1140   2.439       .  S
Zr1138     O1141   2.415       .  S
Zr1138     O1142   2.432       .  S
O1139      H1176   0.990       .  S
O1140      H1171   0.990       .  S
O1140      H1185   0.990       .  S
O1142      H1168   0.966       .  S
O1143     Zr1153   2.390       .  S
O1144     Zr1153   2.353       .  S
O1144      H1169   0.966       .  S
C1145      C4163   1.497       .  S
C1146      C4107   1.489       .  S
C1147      C4096   1.476       .  S
O1148      H1184   0.990       .  S
O1149      C1151   1.274       .  A
O1150      C1151   1.286       .  A
C1151      C4135   1.476       .  S
O1152     Zr1153   2.440       .  S
O1152      H1181   0.990       .  S
Zr1153     O1156   2.435       .  S
Zr1153     O1157   2.437       .  S
Zr1153     O1158   2.365       .  S
O1154      C1159   1.292       .  A
O1155      H1172   0.988       .  S
O1155      H1187   0.990       .  S
O1156      H1173   0.990       .  S
O1157      H1177   0.990       .  S
O1157      H1186   0.990       .  S
O1158      C1159   1.271       .  A
C1159      C4121   1.482       .  S
O1160      H1179   0.990       .  S
O1160      H1183   0.990       .  S
O1161      H1175   0.990       .  S
O1161      H1182   0.990       .  S
O1162      C1166   1.290       .  A
O1163      C1166   1.283       .  A
O1164      H1174   0.990       .  S
O1165      H1178   0.990       .  S
C1166      C4152   1.509       .  S
Zr1189     O1190   2.435       .  S
Zr1189     O1191   2.420       .  S
Zr1189     O1192   2.479       .  S
Zr1189     O1195   2.495       .  S
Zr1189     O1197   2.375       .  S
Zr1189     O1198   2.387       .  S
Zr1189     O1199   2.434       .  S
Zr1189     O1200   2.423       .  S
O1190      H1246   0.990       .  S
O1190      H1254   0.990       .  S
O1191      C1211   1.281       .  A
O1192      C1213   1.294       .  A
O1193     Zr1203   2.393       .  S
O1193      C1212   1.277       .  A
O1194     Zr1202   2.400       .  S
O1194      C1213   1.280       .  A
O1195      C1212   1.296       .  A
O1196     Zr1204   2.424       .  S
O1196      C1211   1.285       .  A
O1197     Zr1202   2.364       .  S
O1197     Zr1204   2.361       .  S
O1198     Zr1203   2.385       .  S
O1198     Zr1204   2.359       .  S
O1198      H1233   0.963       .  S
O1199     Zr1202   2.390       .  S
O1199     Zr1219   2.420       .  S
O1199      H1236   0.966       .  S
O1200     Zr1203   2.391       .  S
O1200     Zr1219   2.441       .  S
Zr1201     O1226   2.437       .  S
Zr1201     O1220   2.368       .  S
Zr1201     O1228   2.437       .  S
Zr1201     O1216   2.451       .  S
Zr1201     O1207   2.385       .  S
Zr1201     O1208   2.391       .  S
Zr1201     O1209   2.382       .  S
Zr1201     O1210   2.376       .  S
Zr1202     O1221   2.431       .  S
Zr1202     O1214   2.437       .  S
Zr1202     O1215   2.394       .  S
Zr1202     O1208   2.399       .  S
Zr1202     O1209   2.368       .  S
Zr1203     O1205   2.435       .  S
Zr1203     O1227   2.437       .  S
Zr1203     O1229   2.402       .  S
Zr1203     O1207   2.392       .  S
Zr1203     O1210   2.375       .  S
Zr1204     O1230   2.436       .  S
Zr1204     O1231   2.434       .  S
Zr1204     O1206   2.436       .  S
Zr1204     O1207   2.396       .  S
Zr1204     O1208   2.377       .  S
O1205      H1242   0.990       .  S
O1206      H1237   0.990       .  S
O1206      H1251   0.989       .  S
O1208      H1234   0.966       .  S
O1209     Zr1219   2.349       .  S
O1210     Zr1219   2.354       .  S
O1210      H1235   0.964       .  S
C1211      C4110   1.479       .  S
C1212      C4051   1.490       .  S
C1213      C4065   1.504       .  S
O1214      H1250   0.990       .  S
O1215      C1217   1.278       .  A
O1216      C1217   1.290       .  A
C1217      C4026   1.494       .  S
O1218     Zr1219   2.435       .  S
O1218      H1247   0.990       .  S
Zr1219     O1222   2.435       .  S
Zr1219     O1223   2.441       .  S
Zr1219     O1224   2.518       .  S
O1220      C1225   1.267       .  A
O1221      H1238   0.990       .  S
O1221      H1253   0.989       .  S
O1222      H1239   0.990       .  S
O1223      H1243   0.990       .  S
O1223      H1252   0.990       .  S
O1224      C1225   1.297       .  A
C1225      C4079   1.495       .  S
O1226      H1245   0.990       .  S
O1226      H1249   0.990       .  S
O1227      H1241   0.990       .  S
O1227      H1248   0.990       .  S
O1228      C1232   1.288       .  A
O1229      C1232   1.278       .  A
O1230      H1240   0.990       .  S
O1231      H1244   0.990       .  S
C1232      C4040   1.489       .  S
Zr1255     O1256   2.433       .  S
Zr1255     O1257   2.401       .  S
Zr1255     O1258   2.486       .  S
Zr1255     O1261   2.485       .  S
Zr1255     O1263   2.388       .  S
Zr1255     O1264   2.405       .  S
Zr1255     O1265   2.424       .  S
Zr1255     O1266   2.433       .  S
O1256      H1312   0.990       .  S
O1256      H1320   0.990       .  S
O1257      C1277   1.278       .  A
O1258      C1279   1.295       .  A
O1259     Zr1269   2.403       .  S
O1259      C1278   1.280       .  A
O1260     Zr1268   2.411       .  S
O1260      C1279   1.282       .  A
O1261      C1278   1.295       .  A
O1262     Zr1270   2.448       .  S
O1262      C1277   1.290       .  A
O1263     Zr1268   2.402       .  S
O1263     Zr1270   2.339       .  S
O1264     Zr1269   2.401       .  S
O1264     Zr1270   2.366       .  S
O1264      H1299   0.963       .  S
O1265     Zr1268   2.409       .  S
O1265     Zr1285   2.428       .  S
O1265      H1302   0.966       .  S
O1266     Zr1269   2.393       .  S
O1266     Zr1285   2.431       .  S
Zr1267     O1292   2.442       .  S
Zr1267     O1286   2.363       .  S
Zr1267     O1294   2.382       .  S
Zr1267     O1282   2.397   1_455  S
Zr1267     O1273   2.334       .  S
Zr1267     O1274   2.399       .  S
Zr1267     O1275   2.351       .  S
Zr1267     O1276   2.380       .  S
Zr1268     O1287   2.436   1_455  S
Zr1268     O1280   2.437   1_455  S
Zr1268     O1281   2.442   1_455  S
Zr1268     O1274   2.424       .  S
Zr1268     O1275   2.392       .  S
Zr1269     O1271   2.434       .  S
Zr1269     O1293   2.437       .  S
Zr1269     O1295   2.459       .  S
Zr1269     O1273   2.338       .  S
Zr1269     O1276   2.375       .  S
Zr1270     O1296   2.435       .  S
Zr1270     O1297   2.433       .  S
Zr1270     O1272   2.435       .  S
Zr1270     O1273   2.367       .  S
Zr1270     O1274   2.403       .  S
O1271      H1308   0.990       .  S
O1272      H1303   0.990       .  S
O1272      H1317   0.990       .  S
O1274      H1300   0.967       .  S
O1275     Zr1285   2.391       .  S
O1276     Zr1285   2.383       .  S
O1276      H1301   0.965       .  S
C1277      C4093   1.489       .  S
C1278      C3995   1.487       .  S
C1279      C3981   1.509       .  S
O1280      H1316   0.990       .  S
O1281      C1283   1.283       .  A
O1282      C1283   1.270       .  A
C1283      C3967   1.486       .  S
O1284     Zr1285   2.436   1_655  S
O1284      H1313   0.990   1_655  S
Zr1285     O1288   2.436   1_455  S
Zr1285     O1289   2.438       .  S
Zr1285     O1290   2.484   1_455  S
O1286      C1291   1.272   1_455  A
O1287      H1304   0.990       .  S
O1287      H1319   0.990       .  S
O1288      H1305   0.990       .  S
O1289      H1309   0.990       .  S
O1289      H1318   0.990       .  S
O1290      C1291   1.292       .  A
C1291      C4012   1.473       .  S
O1292      H1311   0.989       .  S
O1292      H1315   0.989       .  S
O1293      H1307   0.991       .  S
O1293      H1314   0.989       .  S
O1294      C1298   1.274       .  A
O1295      C1298   1.288       .  A
O1296      H1306   0.990       .  S
O1297      H1310   0.990       .  S
C1298      C4023   1.493       .  S
Zr1321     O1322   2.435       .  S
Zr1321     O1323   2.469       .  S
Zr1321     O1324   2.475       .  S
Zr1321     O1327   2.459       .  S
Zr1321     O1329   2.370       .  S
Zr1321     O1330   2.386       .  S
Zr1321     O1331   2.435       .  S
Zr1321     O1332   2.427       .  S
O1322      H1378   0.990       .  S
O1322      H1386   0.990       .  S
O1323      C1343   1.291       .  A
O1324      C1345   1.292       .  A
O1325     Zr1335   2.421       .  S
O1325      C1344   1.282       .  A
O1326     Zr1334   2.404       .  S
O1326      C1345   1.281       .  A
O1327      C1344   1.290       .  A
O1328     Zr1336   2.403       .  S
O1328      C1343   1.278       .  A
O1329     Zr1334   2.377       .  S
O1329     Zr1336   2.362       .  S
O1330     Zr1335   2.369       .  S
O1330     Zr1336   2.390       .  S
O1330      H1365   0.965       .  S
O1331     Zr1334   2.394       .  S
O1331     Zr1351   2.437       .  S
O1331      H1368   0.966       .  S
O1332     Zr1335   2.401       .  S
O1332     Zr1351   2.437       .  S
Zr1333     O1358   2.440       .  S
Zr1333     O1352   2.384       .  S
Zr1333     O1360   2.467       .  S
Zr1333     O1348   2.425       .  S
Zr1333     O1339   2.390       .  S
Zr1333     O1340   2.395       .  S
Zr1333     O1341   2.371       .  S
Zr1333     O1342   2.392       .  S
Zr1334     O1353   2.436       .  S
Zr1334     O1346   2.433       .  S
Zr1334     O1347   2.425       .  S
Zr1334     O1340   2.400       .  S
Zr1334     O1341   2.360       .  S
Zr1335     O1337   2.434       .  S
Zr1335     O1359   2.436       .  S
Zr1335     O1361   2.430       .  S
Zr1335     O1339   2.380       .  S
Zr1335     O1342   2.378       .  S
Zr1336     O1362   2.436       .  S
Zr1336     O1363   2.437       .  S
Zr1336     O1338   2.439       .  S
Zr1336     O1339   2.391       .  S
Zr1336     O1340   2.390       .  S
O1337      H1374   0.990       .  S
O1338      H1369   0.990       .  S
O1338      H1383   0.990       .  S
O1340      H1366   0.966       .  S
O1341     Zr1351   2.347       .  S
O1342     Zr1351   2.338       .  S
O1342      H1367   0.961       .  S
C1343      C4124   1.484       .  S
C1344      C3925   1.508       .  S
C1345      C3939   1.500       .  S
O1346      H1382   0.990       .  S
O1347      C1349   1.283       .  A
O1348      C1349   1.289       .  A
C1349      C4037   1.479       .  S
O1350     Zr1351   2.435       .  S
O1350      H1379   0.990       .  S
Zr1351     O1354   2.438       .  S
Zr1351     O1355   2.436   1_455  S
Zr1351     O1356   2.544       .  S
O1352      C1357   1.263       .  A
O1353      H1370   0.990       .  S
O1353      H1385   0.990       .  S
O1354      H1371   0.990       .  S
O1355      H1375   0.990       .  S
O1355      H1384   0.990       .  S
O1356      C1357   1.298       .  A
C1357      C3953   1.529       .  S
O1358      H1377   0.990       .  S
O1358      H1381   0.990       .  S
O1359      H1373   0.990       .  S
O1359      H1380   0.990       .  S
O1360      C1364   1.293       .  A
O1361      C1364   1.287       .  A
O1362      H1372   0.990       .  S
O1363      H1376   0.990       .  S
C1364      C3970   1.492       .  S
Zr1387     O1388   2.440       .  S
Zr1387     O1389   2.466       .  S
Zr1387     O1390   2.448       .  S
Zr1387     O1393   2.442       .  S
Zr1387     O1395   2.379       .  S
Zr1387     O1396   2.389       .  S
Zr1387     O1397   2.411       .  S
Zr1387     O1398   2.398       .  S
O1388      H1444   0.989       .  S
O1388      H1452   0.991       .  S
O1389      C1409   1.290       .  A
O1390      C1411   1.285       .  A
O1391     Zr1401   2.441       .  S
O1391      C1410   1.287       .  A
O1392     Zr1400   2.431       .  S
O1392      C1411   1.283       .  A
O1393      C1410   1.285       .  A
O1394     Zr1402   2.406       .  S
O1394      C1409   1.277       .  A
O1395     Zr1400   2.397       .  S
O1395     Zr1402   2.386       .  S
O1396     Zr1401   2.397       .  S
O1396     Zr1402   2.386       .  S
O1396      H1431   0.966       .  S
O1397     Zr1400   2.395       .  S
O1397     Zr1417   2.387       .  S
O1397      H1434   0.964       .  S
O1398     Zr1401   2.378       .  S
O1398     Zr1417   2.381       .  S
Zr1399     O1424   2.435       .  S
Zr1399     O1418   2.459       .  S
Zr1399     O1426   2.477       .  S
Zr1399     O1414   2.502       .  S
Zr1399     O1405   2.410       .  S
Zr1399     O1406   2.410       .  S
Zr1399     O1407   2.386       .  S
Zr1399     O1408   2.390       .  S
Zr1400     O1419   2.435       .  S
Zr1400     O1412   2.437       .  S
Zr1400     O1413   2.423       .  S
Zr1400     O1406   2.403       .  S
Zr1400     O1407   2.402       .  S
Zr1401     O1403   2.436       .  S
Zr1401     O1425   2.436       .  S
Zr1401     O1427   2.426       .  S
Zr1401     O1405   2.400       .  S
Zr1401     O1408   2.390       .  S
Zr1402     O1428   2.436       .  S
Zr1402     O1429   2.435       .  S
Zr1402     O1404   2.438       .  S
Zr1402     O1405   2.395       .  S
Zr1402     O1406   2.379       .  S
O1403      H1440   0.990       .  S
O1404      H1435   0.990       .  S
O1404      H1449   0.990       .  S
O1406      H1432   0.964       .  S
O1407     Zr1417   2.384       .  S
O1408     Zr1417   2.377       .  S
O1408      H1433   0.966       .  S
C1409      C3998   1.510       .  S
C1410      C4068   1.497       .  S
C1411      C4166   1.481       .  S
O1412      H1448   0.990       .  S
O1413      C1415   1.282       .  A
O1414      C1415   1.297       .  A
C1415      C4236   1.506       .  S
O1416     Zr1417   2.440       .  S
O1416      H1445   0.990       .  S
Zr1417     O1420   2.437       .  S
Zr1417     O1421   2.438       .  S
Zr1417     O1422   2.402       .  S
O1418      C1423   1.290       .  A
O1419      H1436   0.990       .  S
O1419      H1451   0.990       .  S
O1420      H1437   0.990       .  S
O1421      H1441   0.990       .  S
O1421      H1450   0.991       .  S
O1422      C1423   1.277       .  A
C1423      C4320   1.502       .  S
O1424      H1443   0.990       .  S
O1424      H1447   0.990       .  S
O1425      H1439   0.990       .  S
O1425      H1446   0.990       .  S
O1426      C1430   1.293       .  A
O1427      C1430   1.282       .  A
O1428      H1438   0.990       .  S
O1429      H1442   0.990       .  S
C1430      C4404   1.495       .  S
Zr1453     O1454   2.442       .  S
Zr1453     O1455   2.495       .  S
Zr1453     O1456   2.432       .  S
Zr1453     O1459   2.467       .  S
Zr1453     O1461   2.380       .  S
Zr1453     O1462   2.377       .  S
Zr1453     O1463   2.425       .  S
Zr1453     O1464   2.406       .  S
O1454      H1510   0.990       .  S
O1454      H1518   0.990       .  S
O1455      C1475   1.295       .  A
O1456      C1477   1.283       .  A
O1457     Zr1467   2.419       .  S
O1457      C1476   1.282       .  A
O1458     Zr1466   2.460       .  S
O1458      C1477   1.289       .  A
O1459      C1476   1.291       .  A
O1460     Zr1468   2.395       .  S
O1460      C1475   1.274       .  A
O1461     Zr1466   2.399       .  S
O1461     Zr1468   2.381       .  S
O1462     Zr1467   2.401       .  S
O1462     Zr1468   2.380       .  S
O1462      H1497   0.965       .  S
O1463     Zr1466   2.405       .  S
O1463     Zr1483   2.392       .  S
O1463      H1500   0.963       .  S
O1464     Zr1467   2.385       .  S
O1464     Zr1483   2.398       .  S
Zr1465     O1490   2.443       .  S
Zr1465     O1484   2.483       .  S
Zr1465     O1492   2.476       .  S
Zr1465     O1480   2.447       .  S
Zr1465     O1471   2.401       .  S
Zr1465     O1472   2.425       .  S
Zr1465     O1473   2.383       .  S
Zr1465     O1474   2.381       .  S
Zr1466     O1485   2.436       .  S
Zr1466     O1478   2.435       .  S
Zr1466     O1479   2.451       .  S
Zr1466     O1472   2.408       .  S
Zr1466     O1473   2.406       .  S
Zr1467     O1469   2.434       .  S
Zr1467     O1491   2.439       .  S
Zr1467     O1493   2.403       .  S
Zr1467     O1471   2.387       .  S
Zr1467     O1474   2.409       .  S
Zr1468     O1494   2.437       .  S
Zr1468     O1495   2.433       .  S
Zr1468     O1470   2.440       .  S
Zr1468     O1471   2.387       .  S
Zr1468     O1472   2.377       .  S
O1469      H1506   0.989       .  S
O1470      H1501   0.990       .  S
O1470      H1515   0.990       .  S
O1472      H1498   0.963       .  S
O1473     Zr1483   2.382       .  S
O1474     Zr1483   2.378       .  S
O1474      H1499   0.966       .  S
C1475      C4054   1.518       .  S
C1476      C3942   1.502       .  S
C1477      C4149   1.488       .  S
O1478      H1514   0.990       .  S
O1479      C1481   1.289       .  A
O1480      C1481   1.288       .  A
C1481      C4824   1.500       .  S
O1482     Zr1483   2.440       .  S
O1482      H1511   0.990       .  S
Zr1483     O1486   2.438       .  S
Zr1483     O1487   2.438       .  S
Zr1483     O1488   2.422       .  S
O1484      C1489   1.292       .  A
O1485      H1502   0.990       .  S
O1485      H1517   0.990       .  S
O1486      H1503   0.990       .  S
O1487      H1507   0.990       .  S
O1487      H1516   0.989       .  S
O1488      C1489   1.280       .  A
C1489      C4894   1.513       .  S
O1490      H1509   0.990       .  S
O1490      H1513   0.990       .  S
O1491      H1505   0.990       .  S
O1491      H1512   0.990       .  S
O1492      C1496   1.292       .  A
O1493      C1496   1.278       .  A
O1494      H1504   0.990       .  S
O1495      H1508   0.990       .  S
C1496      C4751   1.491       .  S
Zr1519     O1520   2.437       .  S
Zr1519     O1521   2.469       .  S
Zr1519     O1522   2.462       .  S
Zr1519     O1525   2.464       .  S
Zr1519     O1527   2.392       .  S
Zr1519     O1528   2.384       .  S
Zr1519     O1529   2.428       .  S
Zr1519     O1530   2.422       .  S
O1520      H1576   0.990       .  S
O1520      H1584   0.990       .  S
O1521      C1541   1.290       .  A
O1522      C1543   1.288       .  A
O1523     Zr1533   2.390       .  S
O1523      C1542   1.279       .  A
O1524     Zr1532   2.387       .  S
O1524      C1543   1.275       .  A
O1525      C1542   1.292       .  A
O1526     Zr1534   2.399       .  S
O1526      C1541   1.277       .  A
O1527     Zr1532   2.405       .  S
O1527     Zr1534   2.384       .  S
O1528     Zr1533   2.384       .  S
O1528     Zr1534   2.358       .  S
O1528      H1563   0.966       .  S
O1529     Zr1532   2.394       .  S
O1529     Zr1549   2.418       .  S
O1529      H1566   0.966       .  S
O1530     Zr1533   2.394       .  S
O1530     Zr1549   2.409       .  S
Zr1531     O1556   2.436       .  S
Zr1531     O1550   2.411       .  S
Zr1531     O1558   2.447       .  S
Zr1531     O1546   2.440       .  S
Zr1531     O1537   2.408       .  S
Zr1531     O1538   2.406       .  S
Zr1531     O1539   2.379       .  S
Zr1531     O1540   2.393       .  S
Zr1532     O1551   2.434       .  S
Zr1532     O1544   2.444       .  S
Zr1532     O1545   2.437       .  S
Zr1532     O1538   2.395       .  S
Zr1532     O1539   2.364       .  S
Zr1533     O1535   2.436       .  S
Zr1533     O1557   2.439       .  S
Zr1533     O1559   2.409       .  S
Zr1533     O1537   2.395       .  S
Zr1533     O1540   2.367       .  S
Zr1534     O1560   2.436       .  S
Zr1534     O1561   2.436       .  S
Zr1534     O1536   2.439       .  S
Zr1534     O1537   2.395       .  S
Zr1534     O1538   2.351       .  S
O1535      H1572   0.990       .  S
O1536      H1567   0.990       .  S
O1536      H1581   0.990       .  S
O1538      H1564   0.961       .  S
O1539     Zr1549   2.392       .  S
O1540     Zr1549   2.392       .  S
O1540      H1565   0.965       .  S
C1541      C3855   1.483       .  S
C1542      C3886   1.496       .  S
C1543      C3914   1.489       .  S
O1544      H1580   0.990       .  S
O1545      C1547   1.285       .  A
O1546      C1547   1.288       .  A
C1547      C3844   1.482       .  S
O1548     Zr1549   2.436       .  S
O1548      H1577   0.990       .  S
Zr1549     O1552   2.436       .  S
Zr1549     O1553   2.437       .  S
Zr1549     O1554   2.439       .  S
O1550      C1555   1.269       .  A
O1551      H1568   0.991       .  S
O1551      H1583   0.989       .  S
O1552      H1569   0.990       .  S
O1553      H1573   0.990       .  S
O1553      H1582   0.990       .  S
O1554      C1555   1.275       .  A
C1555      C3897   1.483       .  S
O1556      H1575   0.989       .  S
O1556      H1579   0.990       .  S
O1557      H1571   0.990       .  S
O1557      H1578   0.990       .  S
O1558      C1562   1.288       .  A
O1559      C1562   1.280       .  A
O1560      H1570   0.990       .  S
O1561      H1574   0.990       .  S
C1562      C3869   1.492       .  S
Zr1585     O1586   2.435       .  S
Zr1585     O1587   2.434       .  S
Zr1585     O1588   2.453       .  S
Zr1585     O1591   2.478       .  S
Zr1585     O1593   2.382       .  S
Zr1585     O1594   2.377       .  S
Zr1585     O1595   2.436       .  S
Zr1585     O1596   2.417       .  S
O1586      H1642   0.990       .  S
O1586      H1650   0.990       .  S
O1587      C1607   1.284       .  A
O1588      C1609   1.288       .  A
O1589     Zr1599   2.399       .  S
O1589      C1608   1.278       .  A
O1590     Zr1598   2.400       .  S
O1590      C1609   1.280       .  A
O1591      C1608   1.293       .  A
O1592     Zr1600   2.427       .  S
O1592      C1607   1.284       .  A
O1593     Zr1598   2.384       .  S
O1593     Zr1600   2.359       .  S
O1594     Zr1599   2.387       .  S
O1594     Zr1600   2.361       .  S
O1594      H1629   0.964       .  S
O1595     Zr1598   2.396       .  S
O1595     Zr1615   2.417       .  S
O1595      H1632   0.966       .  S
O1596     Zr1599   2.397       .  S
O1596     Zr1615   2.430       .  S
Zr1597     O1622   2.439       .  S
Zr1597     O1616   2.355       .  S
Zr1597     O1624   2.423       .  S
Zr1597     O1612   2.400       .  S
Zr1597     O1603   2.378       .  S
Zr1597     O1604   2.387       .  S
Zr1597     O1605   2.378       .  S
Zr1597     O1606   2.370       .  S
Zr1598     O1617   2.433       .  S
Zr1598     O1610   2.434       .  S
Zr1598     O1611   2.434       .  S
Zr1598     O1604   2.396       .  S
Zr1598     O1605   2.369       .  S
Zr1599     O1601   2.436   1_554  S
Zr1599     O1623   2.438       .  S
Zr1599     O1625   2.417       .  S
Zr1599     O1603   2.394       .  S
Zr1599     O1606   2.371       .  S
Zr1600     O1626   2.436       .  S
Zr1600     O1627   2.436       .  S
Zr1600     O1602   2.439       .  S
Zr1600     O1603   2.401       .  S
Zr1600     O1604   2.380       .  S
O1601      H1638   0.990       .  S
O1602      H1633   0.990       .  S
O1602      H1647   0.990       .  S
O1604      H1630   0.966       .  S
O1605     Zr1615   2.365       .  S
O1606     Zr1615   2.356       .  S
O1606      H1631   0.965       .  S
C1607      C3858   1.487       .  S
C1608      C3827   1.481       .  S
C1609      C3816   1.489       .  S
O1610      H1646   0.990       .  S
O1611      C1613   1.284       .  A
O1612      C1613   1.281       .  A
C1613      C3788   1.488       .  S
O1614     Zr1615   2.434       .  S
O1614      H1643   0.990       .  S
Zr1615     O1618   2.436       .  S
Zr1615     O1619   2.437   1_554  S
Zr1615     O1620   2.485       .  S
O1616      C1621   1.271       .  A
O1617      H1634   0.990       .  S
O1617      H1649   0.989       .  S
O1618      H1635   0.990       .  S
O1619      H1639   0.990       .  S
O1619      H1648   0.990       .  S
O1620      C1621   1.292       .  A
C1621      C3799   1.471   1_554  S
O1622      H1641   0.990       .  S
O1622      H1645   0.990       .  S
O1623      H1637   0.990       .  S
O1623      H1644   0.990       .  S
O1624      C1628   1.283       .  A
O1625      C1628   1.281       .  A
O1626      H1636   0.990       .  S
O1627      H1640   0.990       .  S
C1628      C3771   1.498       .  S
Zr1651     O1652   2.438       .  S
Zr1651     O1653   2.423       .  S
Zr1651     O1654   2.502       .  S
Zr1651     O1657   2.504       .  S
Zr1651     O1659   2.377       .  S
Zr1651     O1660   2.381       .  S
Zr1651     O1661   2.438       .  S
Zr1651     O1662   2.432       .  S
O1652      H1708   0.990       .  S
O1652      H1716   0.990       .  S
O1653      C1673   1.282       .  A
O1654      C1675   1.298       .  A
O1655     Zr1665   2.395       .  S
O1655      C1674   1.278       .  A
O1656     Zr1664   2.408       .  S
O1656      C1675   1.281       .  A
O1657      C1674   1.297       .  A
O1658     Zr1666   2.416       .  S
O1658      C1673   1.282       .  A
O1659     Zr1664   2.380       .  S
O1659     Zr1666   2.362       .  S
O1660     Zr1665   2.391       .  S
O1660     Zr1666   2.366       .  S
O1660      H1695   0.963       .  S
O1661     Zr1664   2.397       .  S
O1661     Zr1681   2.434       .  S
O1661      H1698   0.966       .  S
O1662     Zr1665   2.393       .  S
O1662     Zr1681   2.438       .  S
Zr1663     O1688   2.439       .  S
Zr1663     O1682   2.351       .  S
Zr1663     O1690   2.406       .  S
Zr1663     O1678   2.395       .  S
Zr1663     O1669   2.380       .  S
Zr1663     O1670   2.384       .  S
Zr1663     O1671   2.373       .  S
Zr1663     O1672   2.371       .  S
Zr1664     O1683   2.435   1_554  S
Zr1664     O1676   2.437       .  S
Zr1664     O1677   2.425       .  S
Zr1664     O1670   2.396       .  S
Zr1664     O1671   2.373       .  S
Zr1665     O1667   2.434       .  S
Zr1665     O1689   2.439       .  S
Zr1665     O1691   2.428       .  S
Zr1665     O1669   2.394       .  S
Zr1665     O1672   2.368       .  S
Zr1666     O1692   2.434       .  S
Zr1666     O1693   2.438       .  S
Zr1666     O1668   2.439       .  S
Zr1666     O1669   2.396       .  S
Zr1666     O1670   2.378       .  S
O1667      H1704   0.990       .  S
O1668      H1699   0.990       .  S
O1668      H1713   0.990       .  S
O1670      H1696   0.966       .  S
O1671     Zr1681   2.357       .  S
O1672     Zr1681   2.352       .  S
O1672      H1697   0.965       .  S
C1673      C3841   1.475       .  S
C1674      C3743   1.494       .  S
C1675      C3757   1.514       .  S
O1676      H1712   0.990   1_554  S
O1677      C1679   1.285       .  A
O1678      C1679   1.279       .  A
C1679      C3774   1.486   1_554  S
O1680     Zr1681   2.435       .  S
O1680      H1709   0.990       .  S
Zr1681     O1684   2.436   1_554  S
Zr1681     O1685   2.437       .  S
Zr1681     O1686   2.527       .  S
O1682      C1687   1.269       .  A
O1683      H1700   0.990       .  S
O1683      H1715   0.989       .  S
O1684      H1701   0.990       .  S
O1685      H1705   0.990       .  S
O1685      H1714   0.989       .  S
O1686      C1687   1.301       .  A
C1687      C3729   1.491   1_554  S
O1688      H1707   0.990       .  S
O1688      H1711   0.990       .  S
O1689      H1703   0.990       .  S
O1689      H1710   0.990       .  S
O1690      C1694   1.282       .  A
O1691      C1694   1.283       .  A
O1692      H1702   0.990       .  S
O1693      H1706   0.990       .  S
C1694      C3715   1.488       .  S
Zr1717     O1718   2.434       .  S
Zr1717     O1719   2.403       .  S
Zr1717     O1720   2.483       .  S
Zr1717     O1723   2.499       .  S
Zr1717     O1725   2.377       .  S
Zr1717     O1726   2.381       .  S
Zr1717     O1727   2.430       .  S
Zr1717     O1728   2.416       .  S
O1718      H1774   0.990       .  S
O1718      H1782   0.990       .  S
O1719      C1739   1.279       .  A
O1720      C1741   1.294       .  A
O1721     Zr1731   2.378       .  S
O1721      C1740   1.274       .  A
O1722     Zr1730   2.401       .  S
O1722      C1741   1.280       .  A
O1723      C1740   1.297       .  A
O1724     Zr1732   2.430       .  S
O1724      C1739   1.285       .  A
O1725     Zr1730   2.374       .  S
O1725     Zr1732   2.355       .  S
O1726     Zr1731   2.383       .  S
O1726     Zr1732   2.362       .  S
O1726      H1761   0.965       .  S
O1727     Zr1730   2.397       .  S
O1727     Zr1747   2.420       .  S
O1727      H1764   0.966       .  S
O1728     Zr1731   2.396       .  S
O1728     Zr1747   2.431       .  S
Zr1729     O1754   2.437       .  S
Zr1729     O1748   2.360       .  S
Zr1729     O1756   2.429       .  S
Zr1729     O1744   2.402       .  S
Zr1729     O1735   2.377       .  S
Zr1729     O1736   2.385       .  S
Zr1729     O1737   2.375       .  S
Zr1729     O1738   2.368       .  S
Zr1730     O1749   2.436       .  S
Zr1730     O1742   2.436       .  S
Zr1730     O1743   2.426       .  S
Zr1730     O1736   2.399       .  S
Zr1730     O1737   2.365       .  S
Zr1731     O1733   2.435       .  S
Zr1731     O1755   2.436       .  S
Zr1731     O1757   2.409       .  S
Zr1731     O1735   2.389       .  S
Zr1731     O1738   2.375       .  S
Zr1732     O1758   2.437       .  S
Zr1732     O1759   2.437       .  S
Zr1732     O1734   2.436       .  S
Zr1732     O1735   2.398       .  S
Zr1732     O1736   2.388       .  S
O1733      H1770   0.990       .  S
O1734      H1765   0.990       .  S
O1734      H1779   0.990       .  S
O1736      H1762   0.966       .  S
O1737     Zr1747   2.352       .  S
O1738     Zr1747   2.353       .  S
O1738      H1763   0.965       .  S
C1739      C3872   1.475       .  S
C1740      C3687   1.483       .  S
C1741      C3701   1.507       .  S
O1742      H1778   0.990       .  S
O1743      C1745   1.283       .  A
O1744      C1745   1.281       .  A
C1745      C3718   1.491       .  S
O1746     Zr1747   2.434       .  S
O1746      H1775   0.990       .  S
Zr1747     O1750   2.436       .  S
Zr1747     O1751   2.439       .  S
Zr1747     O1752   2.505       .  S
O1748      C1753   1.272       .  A
O1749      H1766   0.990       .  S
O1749      H1781   0.990       .  S
O1750      H1767   0.990       .  S
O1751      H1771   0.990       .  S
O1751      H1780   0.990       .  S
O1752      C1753   1.297       .  A
C1753      C3673   1.482       .  S
O1754      H1773   0.990       .  S
O1754      H1777   0.990       .  S
O1755      H1769   0.990       .  S
O1755      H1776   0.990       .  S
O1756      C1760   1.285       .  A
O1757      C1760   1.280       .  A
O1758      H1768   0.990       .  S
O1759      H1772   0.990       .  S
C1760      C3785   1.495       .  S
Zr1783     O1784   2.434       .  S
Zr1783     O1785   2.406       .  S
Zr1783     O1786   2.493       .  S
Zr1783     O1789   2.501       .  S
Zr1783     O1791   2.379       .  S
Zr1783     O1792   2.381       .  S
Zr1783     O1793   2.436       .  S
Zr1783     O1794   2.428       .  S
O1784      H1840   0.990       .  S
O1784      H1848   0.990       .  S
O1785      C1805   1.279       .  A
O1786      C1807   1.296       .  A
O1787     Zr1797   2.385       .  S
O1787      C1806   1.277       .  A
O1788     Zr1796   2.407       .  S
O1788      C1807   1.280       .  A
O1789      C1806   1.297       .  A
O1790     Zr1798   2.430       .  S
O1790      C1805   1.285       .  A
O1791     Zr1796   2.389       .  S
O1791     Zr1798   2.359       .  S
O1792     Zr1797   2.372       .  S
O1792     Zr1798   2.359       .  S
O1792      H1827   0.964       .  S
O1793     Zr1796   2.406       .  S
O1793     Zr1813   2.430       .  S
O1793      H1830   0.966       .  S
O1794     Zr1797   2.394       .  S
O1794     Zr1813   2.426       .  S
Zr1795     O1820   2.438       .  S
Zr1795     O1814   2.358       .  S
Zr1795     O1822   2.401       .  S
Zr1795     O1810   2.384       .  S
Zr1795     O1801   2.371       .  S
Zr1795     O1802   2.382       .  S
Zr1795     O1803   2.371       .  S
Zr1795     O1804   2.368       .  S
Zr1796     O1815   2.435       .  S
Zr1796     O1808   2.436       .  S
Zr1796     O1809   2.455       .  S
Zr1796     O1802   2.393       .  S
Zr1796     O1803   2.369       .  S
Zr1797     O1799   2.435       .  S
Zr1797     O1821   2.437       .  S
Zr1797     O1823   2.421       .  S
Zr1797     O1801   2.390       .  S
Zr1797     O1804   2.357       .  S
Zr1798     O1824   2.435       .  S
Zr1798     O1825   2.441       .  S
Zr1798     O1800   2.437       .  S
Zr1798     O1801   2.395       .  S
Zr1798     O1802   2.392       .  S
O1799      H1836   0.990       .  S
O1800      H1831   0.990       .  S
O1800      H1845   0.990       .  S
O1802      H1828   0.966       .  S
O1803     Zr1813   2.360       .  S
O1804     Zr1813   2.359       .  S
O1804      H1829   0.965       .  S
C1805      C3589   1.470       .  S
C1806      C3645   1.508       .  S
C1807      C3659   1.492       .  S
O1808      H1844   0.990       .  S
O1809      C1811   1.288       .  A
O1810      C1811   1.275       .  A
C1811      C3603   1.500       .  S
O1812     Zr1813   2.436       .  S
O1812      H1841   0.990       .  S
Zr1813     O1816   2.436       .  S
Zr1813     O1817   2.438       .  S
Zr1813     O1818   2.505       .  S
O1814      C1819   1.271       .  A
O1815      H1832   0.990       .  S
O1815      H1847   0.990       .  S
O1816      H1833   0.990       .  S
O1817      H1837   0.990       .  S
O1817      H1846   0.990       .  S
O1818      C1819   1.297       .  A
C1819      C3631   1.480       .  S
O1820      H1839   0.990       .  S
O1820      H1843   0.990       .  S
O1821      H1835   0.990       .  S
O1821      H1842   0.990       .  S
O1822      C1826   1.281       .  A
O1823      C1826   1.282       .  A
O1824      H1834   0.990       .  S
O1825      H1838   0.990       .  S
C1826      C3617   1.487       .  S
Zr1849     O1850   2.434       .  S
Zr1849     O1851   2.414       .  S
Zr1849     O1852   2.482       .  S
Zr1849     O1855   2.475       .  S
Zr1849     O1857   2.372       .  S
Zr1849     O1858   2.384       .  S
Zr1849     O1859   2.422       .  S
Zr1849     O1860   2.426       .  S
O1850      H1906   0.990       .  S
O1850      H1914   0.990       .  S
O1851      C1871   1.280       .  A
O1852      C1873   1.294       .  A
O1853     Zr1863   2.420       .  S
O1853      C1872   1.283       .  A
O1854     Zr1862   2.382       .  S
O1854      C1873   1.275       .  A
O1855      C1872   1.294       .  A
O1856     Zr1864   2.456       .  S
O1856      C1871   1.290       .  A
O1857     Zr1862   2.382       .  S
O1857     Zr1864   2.360       .  S
O1858     Zr1863   2.390       .  S
O1858     Zr1864   2.351       .  S
O1858      H1893   0.964       .  S
O1859     Zr1862   2.400       .  S
O1859     Zr1879   2.424       .  S
O1859      H1896   0.966       .  S
O1860     Zr1863   2.401       .  S
O1860     Zr1879   2.430       .  S
Zr1861     O1886   2.437       .  S
Zr1861     O1880   2.388       .  S
Zr1861     O1888   2.389       .  S
Zr1861     O1876   2.411       .  S
Zr1861     O1867   2.387       .  S
Zr1861     O1868   2.385       .  S
Zr1861     O1869   2.359       .  S
Zr1861     O1870   2.375       .  S
Zr1862     O1881   2.436       .  S
Zr1862     O1874   2.436       .  S
Zr1862     O1875   2.420       .  S
Zr1862     O1868   2.390       .  S
Zr1862     O1869   2.363       .  S
Zr1863     O1865   2.433       .  S
Zr1863     O1887   2.441       .  S
Zr1863     O1889   2.444       .  S
Zr1863     O1867   2.394       .  S
Zr1863     O1870   2.378       .  S
Zr1864     O1890   2.436       .  S
Zr1864     O1891   2.435       .  S
Zr1864     O1866   2.436       .  S
Zr1864     O1867   2.399       .  S
Zr1864     O1868   2.403       .  S
O1865      H1902   0.990       .  S
O1866      H1897   0.990       .  S
O1866      H1911   0.990       .  S
O1868      H1894   0.966       .  S
O1869     Zr1879   2.347       .  S
O1870     Zr1879   2.362       .  S
O1870      H1895   0.966       .  S
C1871      C3533   1.490       .  S
C1872      C3575   1.511       .  S
C1873      C3564   1.479       .  S
O1874      H1910   0.990       .  S
O1875      C1877   1.282       .  A
O1876      C1877   1.282       .  A
C1877      C3620   1.490       .  S
O1878     Zr1879   2.435       .  S
O1878      H1907   0.990       .  S
Zr1879     O1882   2.437       .  S
Zr1879     O1883   2.437       .  S
Zr1879     O1884   2.507       .  S
O1880      C1885   1.277       .  A
O1881      H1898   0.990       .  S
O1881      H1913   0.990       .  S
O1882      H1899   0.990       .  S
O1883      H1903   0.990       .  S
O1883      H1912   0.990       .  S
O1884      C1885   1.297       .  A
C1885      C3547   1.495       .  S
O1886      H1905   0.990       .  S
O1886      H1909   0.990       .  S
O1887      H1901   0.990       .  S
O1887      H1908   0.990       .  S
O1888      C1892   1.279       .  A
O1889      C1892   1.287       .  A
O1890      H1900   0.990       .  S
O1891      H1904   0.990       .  S
C1892      C3519   1.489       .  S
Zr1915     O1916   2.434       .  S
Zr1915     O1917   2.444       .  S
Zr1915     O1918   2.493       .  S
Zr1915     O1921   2.471       .  S
Zr1915     O1923   2.377       .  S
Zr1915     O1924   2.383       .  S
Zr1915     O1925   2.434       .  S
Zr1915     O1926   2.435       .  S
O1916      H1972   0.990       .  S
O1916      H1980   0.990       .  S
O1917      C1937   1.286       .  A
O1918      C1939   1.295       .  A
O1919     Zr1929   2.414       .  S
O1919      C1938   1.282       .  A
O1920     Zr1928   2.407       .  S
O1920      C1939   1.281       .  A
O1921      C1938   1.293       .  A
O1922     Zr1930   2.416       .  S
O1922      C1937   1.281       .  A
O1923     Zr1928   2.385       .  S
O1923     Zr1930   2.376       .  S
O1924     Zr1929   2.376       .  S
O1924     Zr1930   2.366       .  S
O1924      H1959   0.965       .  S
O1925     Zr1928   2.392       .  S
O1925     Zr1945   2.443       .  S
O1925      H1962   0.966       .  S
O1926     Zr1929   2.388       .  S
O1926     Zr1945   2.432       .  S
Zr1927     O1952   2.438       .  S
Zr1927     O1946   2.343       .  S
Zr1927     O1954   2.425       .  S
Zr1927     O1942   2.427       .  S
Zr1927     O1933   2.383       .  S
Zr1927     O1934   2.384       .  S
Zr1927     O1935   2.372       .  S
Zr1927     O1936   2.376       .  S
Zr1928     O1947   2.436       .  S
Zr1928     O1940   2.437       .  S
Zr1928     O1941   2.412       .  S
Zr1928     O1934   2.398       .  S
Zr1928     O1935   2.377       .  S
Zr1929     O1931   2.435       .  S
Zr1929     O1953   2.437       .  S
Zr1929     O1955   2.413       .  S
Zr1929     O1933   2.400       .  S
Zr1929     O1936   2.368       .  S
Zr1930     O1956   2.435       .  S
Zr1930     O1957   2.437       .  S
Zr1930     O1932   2.431       .  S
Zr1930     O1933   2.384       .  S
Zr1930     O1934   2.391       .  S
O1931      H1968   0.990       .  S
O1932      H1963   0.990       .  S
O1932      H1977   0.989       .  S
O1934      H1960   0.966       .  S
O1935     Zr1945   2.352       .  S
O1936     Zr1945   2.348       .  S
O1936      H1961   0.965       .  S
C1937      C3463   1.482       .  S
C1938      C3508   1.510       .  S
C1939      C3491   1.504       .  S
O1940      H1976   0.990       .  S
O1941      C1943   1.281       .  A
O1942      C1943   1.286       .  A
C1943      C3522   1.491       .  S
O1944     Zr1945   2.435       .  S
O1944      H1973   0.990       .  S
Zr1945     O1948   2.436       .  S
Zr1945     O1949   2.438       .  S
Zr1945     O1950   2.527       .  S
O1946      C1951   1.268       .  A
O1947      H1964   0.990       .  S
O1947      H1979   0.990       .  S
O1948      H1965   0.990       .  S
O1949      H1969   0.990       .  S
O1949      H1978   0.989       .  S
O1950      C1951   1.301       .  A
C1951      C3477   1.486       .  S
O1952      H1971   0.990       .  S
O1952      H1975   0.990       .  S
O1953      H1967   0.990       .  S
O1953      H1974   0.990       .  S
O1954      C1958   1.287       .  A
O1955      C1958   1.282       .  A
O1956      H1966   0.990       .  S
O1957      H1970   0.990       .  S
C1958      C3606   1.488       .  S
Zr1981     O1982   2.436       .  S
Zr1981     O1983   2.469       .  S
Zr1981     O1984   2.440       .  S
Zr1981     O1987   2.443       .  S
Zr1981     O1989   2.379       .  S
Zr1981     O1990   2.397       .  S
Zr1981     O1991   2.418       .  S
Zr1981     O1992   2.419       .  S
O1982      H2038   0.990       .  S
O1982      H2046   0.990       .  S
O1983      C2003   1.290       .  A
O1984      C2005   1.286       .  A
O1985     Zr1995   2.421       .  S
O1985      C2004   1.276       .  A
O1986     Zr1994   2.413       .  S
O1986      C2005   1.282       .  A
O1987      C2004   1.284       .  A
O1988     Zr1996   2.371       .  S
O1988      C2003   1.273       .  A
O1989     Zr1994   2.382       .  S
O1989     Zr1996   2.379       .  S
O1990     Zr1995   2.396       .  S
O1990     Zr1996   2.368       .  S
O1990      H2025   0.965       .  S
O1991     Zr1994   2.387       .  S
O1991     Zr2011   2.404       .  S
O1991      H2028   0.966       .  S
O1992     Zr1995   2.385       .  S
O1992     Zr2011   2.403       .  S
Zr1993     O2018   2.437       .  S
Zr1993     O2012   2.400       .  S
Zr1993     O2020   2.439       .  S
Zr1993     O2008   2.481       .  S
Zr1993     O1999   2.387       .  S
Zr1993     O2000   2.400       .  S
Zr1993     O2001   2.381       .  S
Zr1993     O2002   2.397       .  S
Zr1994     O2013   2.435       .  S
Zr1994     O2006   2.434       .  S
Zr1994     O2007   2.406       .  S
Zr1994     O2000   2.395       .  S
Zr1994     O2001   2.377       .  S
Zr1995     O1997   2.435       .  S
Zr1995     O2019   2.438       .  S
Zr1995     O2021   2.420       .  S
Zr1995     O1999   2.390       .  S
Zr1995     O2002   2.389       .  S
Zr1996     O2022   2.433       .  S
Zr1996     O2023   2.436       .  S
Zr1996     O1998   2.438       .  S
Zr1996     O1999   2.362       .  S
Zr1996     O2000   2.372       .  S
O1997      H2034   0.990       .  S
O1998      H2029   0.991       .  S
O1998      H2043   0.990       .  S
O2000      H2026   0.964       .  S
O2001     Zr2011   2.377       .  S
O2002     Zr2011   2.381       .  S
O2002      H2027   0.966       .  S
C2003      C3536   1.473       .  S
C2004      C3421   1.498       .  S
C2005      C3435   1.484       .  S
O2006      H2042   0.990       .  S
O2007      C2009   1.279       .  A
O2008      C2009   1.294       .  A
C2009      C3466   1.514       .  S
O2010     Zr2011   2.436       .  S
O2010      H2039   0.990       .  S
Zr2011     O2014   2.436       .  S
Zr2011     O2015   2.439       .  S
Zr2011     O2016   2.438       .  S
O2012      C2017   1.275       .  A
O2013      H2030   0.990       .  S
O2013      H2045   0.990       .  S
O2014      H2031   0.990       .  S
O2015      H2035   0.990       .  S
O2015      H2044   0.990       .  S
O2016      C2017   1.282       .  A
C2017      C3449   1.474       .  S
O2018      H2037   0.991       .  S
O2018      H2041   0.990       .  S
O2019      H2033   0.989       .  S
O2019      H2040   0.989       .  S
O2020      C2024   1.285       .  A
O2021      C2024   1.281       .  A
O2022      H2032   0.989       .  S
O2023      H2036   0.990       .  S
C2024      C3592   1.469       .  S
Zr2047     O2048   2.441       .  S
Zr2047     O2049   2.483       .  S
Zr2047     O2050   2.427       .  S
Zr2047     O2053   2.454       .  S
Zr2047     O2055   2.372       .  S
Zr2047     O2056   2.383       .  S
Zr2047     O2057   2.422       .  S
Zr2047     O2058   2.403       .  S
O2048      H2104   0.989       .  S
O2048      H2112   0.990       .  S
O2049      C2069   1.293       .  A
O2050      C2071   1.283       .  A
O2051     Zr2061   2.419       .  S
O2051      C2070   1.281       .  A
O2052     Zr2060   2.447       .  S
O2052      C2071   1.286       .  A
O2053      C2070   1.288       .  A
O2054     Zr2062   2.401       .  S
O2054      C2069   1.276       .  A
O2055     Zr2060   2.395       .  S
O2055     Zr2062   2.386       .  S
O2056     Zr2061   2.394       .  S
O2056     Zr2062   2.386       .  S
O2056      H2091   0.966       .  S
O2057     Zr2060   2.398       .  S
O2057     Zr2077   2.392       .  S
O2057      H2094   0.963       .  S
O2058     Zr2061   2.380       .  S
O2058     Zr2077   2.390       .  S
Zr2059     O2084   2.433       .  S
Zr2059     O2078   2.456       .  S
Zr2059     O2086   2.462       .  S
Zr2059     O2074   2.479       .  S
Zr2059     O2065   2.412       .  S
Zr2059     O2066   2.402       .  S
Zr2059     O2067   2.382       .  S
Zr2059     O2068   2.383       .  S
Zr2060     O2079   2.433       .  S
Zr2060     O2072   2.436       .  S
Zr2060     O2073   2.427       .  S
Zr2060     O2066   2.404       .  S
Zr2060     O2067   2.405       .  S
Zr2061     O2063   2.437       .  S
Zr2061     O2085   2.435       .  S
Zr2061     O2087   2.406       .  S
Zr2061     O2065   2.395       .  S
Zr2061     O2068   2.396       .  S
Zr2062     O2088   2.438       .  S
Zr2062     O2089   2.436       .  S
Zr2062     O2064   2.439       .  S
Zr2062     O2065   2.399       .  S
Zr2062     O2066   2.372       .  S
O2063      H2100   0.990       .  S
O2064      H2095   0.990       .  S
O2064      H2109   0.990       .  S
O2066      H2092   0.963       .  S
O2067     Zr2077   2.384       .  S
O2068     Zr2077   2.362       .  S
O2068      H2093   0.966       .  S
C2069      C3690   1.511       .  S
C2070      C3813   1.494       .  S
C2071      C3883   1.484       .  S
O2072      H2108   0.990       .  S
O2073      C2075   1.285       .  A
O2074      C2075   1.295       .  A
C2075      C3648   1.501       .  S
O2076     Zr2077   2.434       .  S
O2076      H2105   0.990       .  S
Zr2077     O2080   2.436       .  S
Zr2077     O2081   2.440       .  S
Zr2077     O2082   2.417       .  S
O2078      C2083   1.289       .  A
O2079      H2096   0.990       .  S
O2079      H2111   0.990       .  S
O2080      H2097   0.990       .  S
O2081      H2101   0.990       .  S
O2081      H2110   0.990       .  S
O2082      C2083   1.279       .  A
C2083      C3561   1.511       .  S
O2084      H2103   0.988       .  S
O2084      H2107   0.990       .  S
O2085      H2099   0.990       .  S
O2085      H2106   0.989       .  S
O2086      C2090   1.289       .  A
O2087      C2090   1.277       .  A
O2088      H2098   0.990       .  S
O2089      H2102   0.990       .  S
C2090      C3424   1.478       .  S
Zr2113     O2114   2.444       .  S
Zr2113     O2115   2.494       .  S
Zr2113     O2116   2.509       .  S
Zr2113     O2119   2.467       .  S
Zr2113     O2121   2.374       .  S
Zr2113     O2122   2.404       .  S
Zr2113     O2123   2.413   1_554  S
Zr2113     O2124   2.424   1_554  S
O2114      H2170   0.990       .  S
O2114      H2178   0.989       .  S
O2115      C2135   1.294       .  A
O2116      C2137   1.300       .  A
O2117     Zr2127   2.463       .  S
O2117      C2136   1.290       .  A
O2118     Zr2126   2.391       .  S
O2118      C2137   1.276   1_556  A
O2119      C2136   1.292   1_554  A
O2120     Zr2128   2.380       .  S
O2120      C2135   1.271       .  A
O2121     Zr2126   2.394   1_554  S
O2121     Zr2128   2.395       .  S
O2122     Zr2127   2.414   1_554  S
O2122     Zr2128   2.375       .  S
O2122      H2157   0.966       .  S
O2123     Zr2126   2.400       .  S
O2123     Zr2143   2.357       .  S
O2123      H2160   0.962       .  S
O2124     Zr2127   2.398       .  S
O2124     Zr2143   2.390       .  S
Zr2125     O2150   2.440       .  S
Zr2125     O2144   2.465       .  S
Zr2125     O2152   2.432       .  S
Zr2125     O2140   2.469       .  S
Zr2125     O2131   2.404       .  S
Zr2125     O2132   2.400       .  S
Zr2125     O2133   2.370       .  S
Zr2125     O2134   2.398       .  S
Zr2126     O2145   2.439       .  S
Zr2126     O2138   2.434   1_556  S
Zr2126     O2139   2.416       .  S
Zr2126     O2132   2.393       .  S
Zr2126     O2133   2.395       .  S
Zr2127     O2129   2.436       .  S
Zr2127     O2151   2.436   1_556  S
Zr2127     O2153   2.478       .  S
Zr2127     O2131   2.386       .  S
Zr2127     O2134   2.408       .  S
Zr2128     O2154   2.437       .  S
Zr2128     O2155   2.434       .  S
Zr2128     O2130   2.438       .  S
Zr2128     O2131   2.370   1_554  S
Zr2128     O2132   2.379   1_554  S
O2129      H2166   0.990       .  S
O2130      H2161   0.990       .  S
O2130      H2175   0.990       .  S
O2132      H2158   0.961   1_556  S
O2133     Zr2143   2.390       .  S
O2134     Zr2143   2.377       .  S
O2134      H2159   0.966       .  S
C2135      C3676   1.487       .  S
C2136      C3732   1.504       .  S
C2137      C3802   1.499   1_554  S
O2138      H2174   0.990       .  S
O2139      C2141   1.279       .  A
O2140      C2141   1.290       .  A
C2141      C4950   1.478       .  S
O2142     Zr2143   2.438       .  S
O2142      H2171   0.990       .  S
Zr2143     O2146   2.438       .  S
Zr2143     O2147   2.440       .  S
Zr2143     O2148   2.381       .  S
O2144      C2149   1.288       .  A
O2145      H2162   0.990       .  S
O2145      H2177   0.990       .  S
O2146      H2163   0.990       .  S
O2147      H2167   0.990       .  S
O2147      H2176   0.988       .  S
O2148      C2149   1.273       .  A
C2149      C5174   1.475       .  S
O2150      H2169   0.990       .  S
O2150      H2173   0.989       .  S
O2151      H2165   0.990   1_554  S
O2151      H2172   0.990       .  S
O2152      C2156   1.286       .  A
O2153      C2156   1.294       .  A
O2154      H2164   0.990       .  S
O2155      H2168   0.990       .  S
C2156      C5076   1.509       .  S
Zr2179     O2180   2.436       .  S
Zr2179     O2181   2.434       .  S
Zr2179     O2182   2.452       .  S
Zr2179     O2185   2.459       .  S
Zr2179     O2187   2.381       .  S
Zr2179     O2188   2.387       .  S
Zr2179     O2189   2.427       .  S
Zr2179     O2190   2.415       .  S
O2180      H2236   0.990       .  S
O2180      H2244   0.990       .  S
O2181      C2201   1.283       .  A
O2182      C2203   1.288       .  A
O2183     Zr2193   2.398       .  S
O2183      C2202   1.279       .  A
O2184     Zr2192   2.409       .  S
O2184      C2203   1.282       .  A
O2185      C2202   1.290       .  A
O2186     Zr2194   2.420       .  S
O2186      C2201   1.284       .  A
O2187     Zr2192   2.394       .  S
O2187     Zr2194   2.357       .  S
O2188     Zr2193   2.386       .  S
O2188     Zr2194   2.362       .  S
O2188      H2223   0.965       .  S
O2189     Zr2192   2.408       .  S
O2189     Zr2209   2.416       .  S
O2189      H2226   0.966       .  S
O2190     Zr2193   2.403       .  S
O2190     Zr2209   2.410       .  S
Zr2191     O2216   2.433       .  S
Zr2191     O2210   2.371       .  S
Zr2191     O2218   2.385       .  S
Zr2191     O2206   2.405       .  S
Zr2191     O2197   2.391       .  S
Zr2191     O2198   2.388       .  S
Zr2191     O2199   2.374       .  S
Zr2191     O2200   2.371       .  S
Zr2192     O2211   2.435       .  S
Zr2192     O2204   2.437       .  S
Zr2192     O2205   2.460       .  S
Zr2192     O2198   2.404       .  S
Zr2192     O2199   2.373       .  S
Zr2193     O2195   2.433       .  S
Zr2193     O2217   2.437       .  S
Zr2193     O2219   2.453       .  S
Zr2193     O2197   2.374       .  S
Zr2193     O2200   2.357       .  S
Zr2194     O2220   2.435       .  S
Zr2194     O2221   2.431       .  S
Zr2194     O2196   2.435       .  S
Zr2194     O2197   2.393       .  S
Zr2194     O2198   2.382       .  S
O2195      H2232   0.990       .  S
O2196      H2227   0.989       .  S
O2196      H2241   0.990       .  S
O2198      H2224   0.965       .  S
O2199     Zr2209   2.376       .  S
O2200     Zr2209   2.363       .  S
O2200      H2225   0.965       .  S
C2201      C3337   1.491       .  S
C2202      C3396   1.476       .  S
C2203      C3410   1.490       .  S
O2204      H2240   0.991       .  S
O2205      C2207   1.286       .  A
O2206      C2207   1.272       .  A
C2207      C3368   1.497       .  S
O2208     Zr2209   2.435       .  S
O2208      H2237   0.990       .  S
Zr2209     O2212   2.434       .  S
Zr2209     O2213   2.438       .  S
Zr2209     O2214   2.469       .  S
O2210      C2215   1.275       .  A
O2211      H2228   0.990       .  S
O2211      H2243   0.990       .  S
O2212      H2229   0.990       .  S
O2213      H2233   0.990       .  S
O2213      H2242   0.990       .  S
O2214      C2215   1.290       .  A
C2215      C3379   1.469       .  S
O2216      H2235   0.990       .  S
O2216      H2239   0.989       .  S
O2217      H2231   0.990       .  S
O2217      H2238   0.990       .  S
O2218      C2222   1.275       .  A
O2219      C2222   1.291       .  A
O2220      H2230   0.990       .  S
O2221      H2234   0.990       .  S
C2222      C3351   1.488       .  S
Zr2245     O2246   2.436       .  S
Zr2245     O2247   2.446       .  S
Zr2245     O2248   2.437       .  S
Zr2245     O2251   2.439       .  S
Zr2245     O2253   2.382       .  S
Zr2245     O2254   2.384       .  S
Zr2245     O2255   2.419       .  S
Zr2245     O2256   2.414       .  S
O2246      H2302   0.990       .  S
O2246      H2310   0.990       .  S
O2247      C2267   1.285       .  A
O2248      C2269   1.284       .  A
O2249     Zr2259   2.416   1_655  S
O2249      C2268   1.283   1_655  A
O2250     Zr2258   2.395       .  S
O2250      C2269   1.278       .  A
O2251      C2268   1.287       .  A
O2252     Zr2260   2.416       .  S
O2252      C2267   1.283       .  A
O2253     Zr2258   2.394       .  S
O2253     Zr2260   2.367       .  S
O2254     Zr2259   2.383       .  S
O2254     Zr2260   2.370       .  S
O2254      H2289   0.965       .  S
O2255     Zr2258   2.399       .  S
O2255     Zr2275   2.415       .  S
O2255      H2292   0.966       .  S
O2256     Zr2259   2.400       .  S
O2256     Zr2275   2.416       .  S
Zr2257     O2282   2.442       .  S
Zr2257     O2276   2.364       .  S
Zr2257     O2284   2.365       .  S
Zr2257     O2272   2.376       .  S
Zr2257     O2263   2.381       .  S
Zr2257     O2264   2.373       .  S
Zr2257     O2265   2.366       .  S
Zr2257     O2266   2.370       .  S
Zr2258     O2277   2.435   1_545  S
Zr2258     O2270   2.434       .  S
Zr2258     O2271   2.449       .  S
Zr2258     O2264   2.384       .  S
Zr2258     O2265   2.378       .  S
Zr2259     O2261   2.434   1_455  S
Zr2259     O2283   2.437       .  S
Zr2259     O2285   2.450   1_455  S
Zr2259     O2263   2.391       .  S
Zr2259     O2266   2.361       .  S
Zr2260     O2286   2.436       .  S
Zr2260     O2287   2.436       .  S
Zr2260     O2262   2.435       .  S
Zr2260     O2263   2.393       .  S
Zr2260     O2264   2.382       .  S
O2261      H2298   0.990       .  S
O2262      H2293   0.990       .  S
O2262      H2307   0.989       .  S
O2264      H2290   0.966       .  S
O2265     Zr2275   2.374       .  S
O2266     Zr2275   2.359       .  S
O2266      H2291   0.965   1_455  S
C2267      C3340   1.477       .  S
C2268      C3323   1.490   1_455  S
C2269      C3298   1.465       .  S
O2270      H2306   0.990       .  S
O2271      C2273   1.286       .  A
O2272      C2273   1.275       .  A
C2273      C3284   1.494       .  S
O2274     Zr2275   2.436   1_655  S
O2274      H2303   0.990   1_655  S
Zr2275     O2278   2.436   1_545  S
Zr2275     O2279   2.438   1_455  S
Zr2275     O2280   2.474       .  S
O2276      C2281   1.272       .  A
O2277      H2294   0.990       .  S
O2277      H2309   0.990       .  S
O2278      H2295   0.990       .  S
O2279      H2299   0.990       .  S
O2279      H2308   0.990       .  S
O2280      C2281   1.290       .  A
C2281      C3309   1.469   1_445  S
O2282      H2301   0.990       .  S
O2282      H2305   0.990       .  S
O2283      H2297   0.990   1_455  S
O2283      H2304   0.990       .  S
O2284      C2288   1.271       .  A
O2285      C2288   1.290   1_655  A
O2286      H2296   0.991       .  S
O2287      H2300   0.989       .  S
C2288      C3267   1.485   1_455  S
Zr2311     O2312   2.433       .  S
Zr2311     O2313   2.398       .  S
Zr2311     O2314   2.517       .  S
Zr2311     O2317   2.497       .  S
Zr2311     O2319   2.377       .  S
Zr2311     O2320   2.403       .  S
Zr2311     O2321   2.423       .  S
Zr2311     O2322   2.431       .  S
O2312      H2368   0.990       .  S
O2312      H2376   0.990       .  S
O2313      C2333   1.278       .  A
O2314      C2335   1.302       .  A
O2315     Zr2325   2.412       .  S
O2315      C2334   1.273       .  A
O2316     Zr2324   2.380       .  S
O2316      C2335   1.274       .  A
O2317      C2334   1.293       .  A
O2318     Zr2326   2.459       .  S
O2318      C2333   1.291       .  A
O2319     Zr2324   2.378       .  S
O2319     Zr2326   2.364       .  S
O2320     Zr2325   2.391       .  S
O2320     Zr2326   2.350       .  S
O2320      H2355   0.964       .  S
O2321     Zr2324   2.397       .  S
O2321     Zr2341   2.425       .  S
O2321      H2358   0.966       .  S
O2322     Zr2325   2.395       .  S
O2322     Zr2341   2.421       .  S
Zr2323     O2348   2.438       .  S
Zr2323     O2342   2.396       .  S
Zr2323     O2350   2.410       .  S
Zr2323     O2338   2.422       .  S
Zr2323     O2329   2.392       .  S
Zr2323     O2330   2.396       .  S
Zr2323     O2331   2.364       .  S
Zr2323     O2332   2.376       .  S
Zr2324     O2343   2.432   1_455  S
Zr2324     O2336   2.436       .  S
Zr2324     O2337   2.418       .  S
Zr2324     O2330   2.386       .  S
Zr2324     O2331   2.362       .  S
Zr2325     O2327   2.434   1_554  S
Zr2325     O2349   2.439       .  S
Zr2325     O2351   2.418   1_554  S
Zr2325     O2329   2.393       .  S
Zr2325     O2332   2.376       .  S
Zr2326     O2352   2.437       .  S
Zr2326     O2353   2.437       .  S
Zr2326     O2328   2.434       .  S
Zr2326     O2329   2.406       .  S
Zr2326     O2330   2.400       .  S
O2327      H2364   0.990       .  S
O2328      H2359   0.990       .  S
O2328      H2373   0.990       .  S
O2330      H2356   0.966       .  S
O2331     Zr2341   2.344       .  S
O2332     Zr2341   2.364       .  S
O2332      H2357   0.966       .  S
C2333      C3365   1.482       .  S
C2334      C3228   1.526       .  S
C2335      C3253   1.498       .  S
O2336      H2372   0.990       .  S
O2337      C2339   1.283       .  A
O2338      C2339   1.283       .  A
C2339      C3270   1.490       .  S
O2340     Zr2341   2.434   1_655  S
O2340      H2369   0.990   1_655  S
Zr2341     O2344   2.434   1_455  S
Zr2341     O2345   2.438   1_554  S
Zr2341     O2346   2.505       .  S
O2342      C2347   1.279       .  A
O2343      H2360   0.989       .  S
O2343      H2375   0.990       .  S
O2344      H2361   0.990       .  S
O2345      H2365   0.990       .  S
O2345      H2374   0.990       .  S
O2346      C2347   1.298       .  A
C2347      C3239   1.498   1_455  S
O2348      H2367   0.990       .  S
O2348      H2371   0.990       .  S
O2349      H2363   0.990       .  S
O2349      H2370   0.989       .  S
O2350      C2354   1.283   1_554  A
O2351      C2354   1.281       .  A
O2352      H2362   0.991       .  S
O2353      H2366   0.990       .  S
C2354      C3211   1.487       .  S
Zr2377     O2378   2.433   1_545  S
Zr2377     O2379   2.417       .  S
Zr2377     O2380   2.482       .  S
Zr2377     O2383   2.507   1_545  S
Zr2377     O2385   2.382       .  S
Zr2377     O2386   2.390       .  S
Zr2377     O2387   2.437       .  S
Zr2377     O2388   2.432       .  S
O2378      H2434   0.990       .  S
O2378      H2442   0.990       .  S
O2379      C2399   1.281       .  A
O2380      C2401   1.294       .  A
O2381     Zr2391   2.413   1_565  S
O2381      C2400   1.281       .  A
O2382     Zr2390   2.400       .  S
O2382      C2401   1.280       .  A
O2383      C2400   1.298       .  A
O2384     Zr2392   2.420       .  S
O2384      C2399   1.283       .  A
O2385     Zr2390   2.370       .  S
O2385     Zr2392   2.363       .  S
O2386     Zr2391   2.396       .  S
O2386     Zr2392   2.354       .  S
O2386      H2421   0.963       .  S
O2387     Zr2390   2.382       .  S
O2387     Zr2407   2.429       .  S
O2387      H2424   0.966       .  S
O2388     Zr2391   2.374       .  S
O2388     Zr2407   2.445       .  S
Zr2389     O2414   2.437       .  S
Zr2389     O2408   2.382       .  S
Zr2389     O2416   2.429       .  S
Zr2389     O2404   2.458       .  S
Zr2389     O2395   2.386       .  S
Zr2389     O2396   2.404       .  S
Zr2389     O2397   2.381       .  S
Zr2389     O2398   2.396       .  S
Zr2390     O2409   2.434       .  S
Zr2390     O2402   2.436       .  S
Zr2390     O2403   2.385       .  S
Zr2390     O2396   2.403       .  S
Zr2390     O2397   2.367       .  S
Zr2391     O2393   2.436   1_554  S
Zr2391     O2415   2.446   1_554  S
Zr2391     O2417   2.409   1_554  S
Zr2391     O2395   2.412       .  S
Zr2391     O2398   2.370       .  S
Zr2392     O2418   2.436       .  S
Zr2392     O2419   2.438       .  S
Zr2392     O2394   2.438       .  S
Zr2392     O2395   2.390       .  S
Zr2392     O2396   2.375       .  S
O2393      H2430   0.991   1_545  S
O2394      H2425   0.990       .  S
O2394      H2439   0.990       .  S
O2396      H2422   0.966       .  S
O2397     Zr2407   2.349       .  S
O2398     Zr2407   2.380       .  S
O2398      H2423   0.966   1_554  S
C2399      C3281   1.474       .  S
C2400      C3200   1.512       .  S
C2401      C3183   1.499       .  S
O2402      H2438   0.990       .  S
O2403      C2405   1.276       .  A
O2404      C2405   1.290       .  A
C2405      C3354   1.495       .  S
O2406     Zr2407   2.436       .  S
O2406      H2435   0.990   1_545  S
Zr2407     O2410   2.435       .  S
Zr2407     O2411   2.442   1_554  S
Zr2407     O2412   2.503       .  S
O2408      C2413   1.263       .  A
O2409      H2426   0.990       .  S
O2409      H2441   0.990       .  S
O2410      H2427   0.990       .  S
O2411      H2431   0.990       .  S
O2411      H2440   0.990       .  S
O2412      C2413   1.291       .  A
C2413      C3169   1.499       .  S
O2414      H2433   0.990       .  S
O2414      H2437   0.990       .  S
O2415      H2429   0.989       .  S
O2415      H2436   0.988       .  S
O2416      C2420   1.285   1_554  A
O2417      C2420   1.277       .  A
O2418      H2428   0.990       .  S
O2419      H2432   0.990       .  S
C2420      C3214   1.469       .  S
Zr2443     O2444   2.444       .  S
Zr2443     O2445   2.468       .  S
Zr2443     O2446   2.402       .  S
Zr2443     O2449   2.417       .  S
Zr2443     O2451   2.376       .  S
Zr2443     O2452   2.367       .  S
Zr2443     O2453   2.411       .  S
Zr2443     O2454   2.394       .  S
O2444      H2500   0.990       .  S
O2444      H2508   0.991       .  S
O2445      C2465   1.289       .  A
O2446      C2467   1.279       .  A
O2447     Zr2457   2.448       .  S
O2447      C2466   1.287   1_554  A
O2448     Zr2456   2.486       .  S
O2448      C2467   1.292       .  A
O2449      C2466   1.282       .  A
O2450     Zr2458   2.416   1_556  S
O2450      C2465   1.278       .  A
O2451     Zr2456   2.413       .  S
O2451     Zr2458   2.384   1_556  S
O2452     Zr2457   2.394   1_556  S
O2452     Zr2458   2.375   1_556  S
O2452      H2487   0.966   1_556  S
O2453     Zr2456   2.404       .  S
O2453     Zr2473   2.378       .  S
O2453      H2490   0.964       .  S
O2454     Zr2457   2.382   1_556  S
O2454     Zr2473   2.386       .  S
Zr2455     O2480   2.440       .  S
Zr2455     O2474   2.495       .  S
Zr2455     O2482   2.463       .  S
Zr2455     O2470   2.469       .  S
Zr2455     O2461   2.411       .  S
Zr2455     O2462   2.423   1_554  S
Zr2455     O2463   2.390   1_554  S
Zr2455     O2464   2.386       .  S
Zr2456     O2475   2.436       .  S
Zr2456     O2468   2.434       .  S
Zr2456     O2469   2.470       .  S
Zr2456     O2462   2.412       .  S
Zr2456     O2463   2.415       .  S
Zr2457     O2459   2.434       .  S
Zr2457     O2481   2.437       .  S
Zr2457     O2483   2.416       .  S
Zr2457     O2461   2.396       .  S
Zr2457     O2464   2.408       .  S
Zr2458     O2484   2.435       .  S
Zr2458     O2485   2.430       .  S
Zr2458     O2460   2.440   1_554  S
Zr2458     O2461   2.400       .  S
Zr2458     O2462   2.380   1_554  S
O2459      H2496   0.990       .  S
O2460      H2491   0.990       .  S
O2460      H2505   0.990       .  S
O2462      H2488   0.961       .  S
O2463     Zr2473   2.390       .  S
O2464     Zr2473   2.382   1_554  S
O2464      H2489   0.966       .  S
C2465      C4908   1.491       .  S
C2466      C4698   1.493       .  S
C2467      C4768   1.497       .  S
O2468      H2504   0.990       .  S
O2469      C2471   1.292       .  A
O2470      C2471   1.291   1_554  A
C2471      C3225   1.505       .  S
O2472     Zr2473   2.434       .  S
O2472      H2501   0.990       .  S
Zr2473     O2476   2.434       .  S
Zr2473     O2477   2.439       .  S
Zr2473     O2478   2.393       .  S
O2474      C2479   1.294   1_554  A
O2475      H2492   0.989       .  S
O2475      H2507   0.990       .  S
O2476      H2493   0.989       .  S
O2477      H2497   0.990       .  S
O2477      H2506   0.990       .  S
O2478      C2479   1.275       .  A
C2479      C3172   1.501   1_556  S
O2480      H2499   0.991       .  S
O2480      H2503   0.990       .  S
O2481      H2495   0.990       .  S
O2481      H2502   0.990       .  S
O2482      C2486   1.290       .  A
O2483      C2486   1.280       .  A
O2484      H2494   0.990       .  S
O2485      H2498   0.990       .  S
C2486      C3382   1.479       .  S
Zr2509     O2510   2.440       .  S
Zr2509     O2511   2.423       .  S
Zr2509     O2512   2.435       .  S
Zr2509     O2515   2.420       .  S
Zr2509     O2517   2.370       .  S
Zr2509     O2518   2.382       .  S
Zr2509     O2519   2.387   1_545  S
Zr2509     O2520   2.386   1_545  S
O2510      H2566   0.989       .  S
O2510      H2574   0.990       .  S
O2511      C2531   1.282       .  A
O2512      C2533   1.286       .  A
O2513     Zr2523   2.465   1_545  S
O2513      C2532   1.291       .  A
O2514     Zr2522   2.412   1_545  S
O2514      C2533   1.279       .  A
O2515      C2532   1.285       .  A
O2516     Zr2524   2.444       .  S
O2516      C2531   1.284       .  A
O2517     Zr2522   2.397   1_545  S
O2517     Zr2524   2.362       .  S
O2518     Zr2523   2.408   1_545  S
O2518     Zr2524   2.368       .  S
O2518      H2553   0.965       .  S
O2519     Zr2522   2.400       .  S
O2519     Zr2539   2.387       .  S
O2519      H2556   0.966       .  S
O2520     Zr2523   2.399       .  S
O2520     Zr2539   2.372       .  S
Zr2521     O2546   2.445       .  S
Zr2521     O2540   2.493       .  S
Zr2521     O2548   2.456       .  S
Zr2521     O2536   2.446       .  S
Zr2521     O2527   2.413   1_565  S
Zr2521     O2528   2.426   1_565  S
Zr2521     O2529   2.378       .  S
Zr2521     O2530   2.388       .  S
Zr2522     O2541   2.436       .  S
Zr2522     O2534   2.436   1_565  S
Zr2522     O2535   2.421       .  S
Zr2522     O2528   2.398   1_565  S
Zr2522     O2529   2.391       .  S
Zr2523     O2525   2.435       .  S
Zr2523     O2547   2.438   1_565  S
Zr2523     O2549   2.484       .  S
Zr2523     O2527   2.386   1_565  S
Zr2523     O2530   2.410       .  S
Zr2524     O2550   2.438       .  S
Zr2524     O2551   2.431       .  S
Zr2524     O2526   2.439       .  S
Zr2524     O2527   2.406       .  S
Zr2524     O2528   2.400       .  S
O2525      H2562   0.990       .  S
O2526      H2557   0.990       .  S
O2526      H2571   0.990       .  S
O2528      H2554   0.964       .  S
O2529     Zr2539   2.392       .  S
O2530     Zr2539   2.403       .  S
O2530      H2555   0.966       .  S
C2531      C3393   1.512       .  S
C2532      C3186   1.502       .  S
C2533      C3295   1.472       .  S
O2534      H2570   0.990       .  S
O2535      C2537   1.281       .  A
O2536      C2537   1.286       .  A
C2537      C4250   1.484       .  S
O2538     Zr2539   2.436       .  S
O2538      H2567   0.990       .  S
Zr2539     O2542   2.439       .  S
Zr2539     O2543   2.438       .  S
Zr2539     O2544   2.374       .  S
O2540      C2545   1.294       .  A
O2541      H2558   0.990       .  S
O2541      H2573   0.990       .  S
O2542      H2559   0.990       .  S
O2543      H2563   0.990       .  S
O2543      H2572   0.990       .  S
O2544      C2545   1.271       .  A
C2545      C4415   1.485       .  S
O2546      H2565   0.991       .  S
O2546      H2569   0.990       .  S
O2547      H2561   0.990       .  S
O2547      H2568   0.990       .  S
O2548      C2552   1.287       .  A
O2549      C2552   1.294       .  A
O2550      H2560   0.989       .  S
O2551      H2564   0.989       .  S
C2552      C4194   1.512       .  S
Zr2575     O2576   2.442   1_565  S
Zr2575     O2577   2.466       .  S
Zr2575     O2578   2.474   1_565  S
Zr2575     O2581   2.486       .  S
Zr2575     O2583   2.394   1_455  S
Zr2575     O2584   2.383       .  S
Zr2575     O2585   2.425   1_454  S
Zr2575     O2586   2.413   1_554  S
O2576      H2632   0.990       .  S
O2576      H2640   0.990       .  S
O2577      C2597   1.289   1_455  A
O2578      C2599   1.291   1_455  A
O2579     Zr2589   2.415       .  S
O2579      C2598   1.279       .  A
O2580     Zr2588   2.468   1_544  S
O2580      C2599   1.290       .  A
O2581      C2598   1.294       .  A
O2582     Zr2590   2.377       .  S
O2582      C2597   1.271       .  A
O2583     Zr2588   2.410   1_554  S
O2583     Zr2590   2.399       .  S
O2584     Zr2589   2.387       .  S
O2584     Zr2590   2.385   1_455  S
O2584      H2619   0.966       .  S
O2585     Zr2588   2.409       .  S
O2585     Zr2605   2.393   1_655  S
O2585      H2622   0.962   1_565  S
O2586     Zr2589   2.390   1_556  S
O2586     Zr2605   2.412       .  S
Zr2587     O2612   2.439       .  S
Zr2587     O2606   2.415       .  S
Zr2587     O2614   2.447       .  S
Zr2587     O2602   2.445       .  S
Zr2587     O2593   2.395   1_556  S
Zr2587     O2594   2.394   1_556  S
Zr2587     O2595   2.379       .  S
Zr2587     O2596   2.382   1_655  S
Zr2588     O2607   2.437   1_565  S
Zr2588     O2600   2.435   1_566  S
Zr2588     O2601   2.478       .  S
Zr2588     O2594   2.401   1_556  S
Zr2588     O2595   2.398       .  S
Zr2589     O2591   2.436   1_554  S
Zr2589     O2613   2.437       .  S
Zr2589     O2615   2.402   1_554  S
Zr2589     O2593   2.398   1_455  S
Zr2589     O2596   2.395   1_554  S
Zr2590     O2616   2.437       .  S
Zr2590     O2617   2.436       .  S
Zr2590     O2592   2.438       .  S
Zr2590     O2593   2.383       .  S
Zr2590     O2594   2.371       .  S
O2591      H2628   0.991       .  S
O2592      H2623   0.990       .  S
O2592      H2637   0.990       .  S
O2594      H2620   0.965       .  S
O2595     Zr2605   2.377   1_655  S
O2596     Zr2605   2.357       .  S
O2596      H2621   0.966       .  S
C2597      C3312   1.472       .  S
C2598      C3197   1.498       .  S
C2599      C3242   1.504       .  S
O2600      H2636   0.990       .  S
O2601      C2603   1.294       .  A
O2602      C2603   1.288       .  A
C2603      C5090   1.501       .  S
O2604     Zr2605   2.438   1_545  S
O2604      H2633   0.990       .  S
Zr2605     O2608   2.437   1_465  S
Zr2605     O2609   2.439       .  S
Zr2605     O2610   2.449   1_455  S
O2606      C2611   1.281       .  A
O2607      H2624   0.990       .  S
O2607      H2639   0.990       .  S
O2608      H2625   0.990   1_545  S
O2609      H2629   0.990       .  S
O2609      H2638   0.990       .  S
O2610      C2611   1.286       .  A
C2611      C5020   1.510       .  S
O2612      H2631   0.989       .  S
O2612      H2635   0.990       .  S
O2613      H2627   0.990       .  S
O2613      H2634   0.990       .  S
O2614      C2618   1.290   1_655  A
O2615      C2618   1.277       .  A
O2616      H2626   0.989       .  S
O2617      H2630   0.990       .  S
C2618      C4964   1.472       .  S
Zr2641     O2642   2.440       .  S
Zr2641     O2643   2.498       .  S
Zr2641     O2644   2.441   1_455  S
Zr2641     O2647   2.432       .  S
Zr2641     O2649   2.380   1_455  S
Zr2641     O2650   2.377   1_455  S
Zr2641     O2651   2.428   1_455  S
Zr2641     O2652   2.404       .  S
O2642      H2698   0.990       .  S
O2642      H2706   0.990       .  S
O2643      C2663   1.295       .  A
O2644      C2665   1.285       .  A
O2645     Zr2655   2.445       .  S
O2645      C2664   1.288       .  A
O2646     Zr2654   2.428       .  S
O2646      C2665   1.283       .  A
O2647      C2664   1.285       .  A
O2648     Zr2656   2.432       .  S
O2648      C2663   1.282   1_655  A
O2649     Zr2654   2.419       .  S
O2649     Zr2656   2.383       .  S
O2650     Zr2655   2.390   1_655  S
O2650     Zr2656   2.379       .  S
O2650      H2685   0.965   1_655  S
O2651     Zr2654   2.407       .  S
O2651     Zr2671   2.396       .  S
O2651      H2688   0.964       .  S
O2652     Zr2655   2.379       .  S
O2652     Zr2671   2.387   1_455  S
Zr2653     O2678   2.443       .  S
Zr2653     O2672   2.464       .  S
Zr2653     O2680   2.429       .  S
Zr2653     O2668   2.459       .  S
Zr2653     O2659   2.406       .  S
Zr2653     O2660   2.413       .  S
Zr2653     O2661   2.374       .  S
Zr2653     O2662   2.381       .  S
Zr2654     O2673   2.437       .  S
Zr2654     O2666   2.435       .  S
Zr2654     O2667   2.453       .  S
Zr2654     O2660   2.396       .  S
Zr2654     O2661   2.399       .  S
Zr2655     O2657   2.435       .  S
Zr2655     O2679   2.437       .  S
Zr2655     O2681   2.423   1_455  S
Zr2655     O2659   2.402   1_455  S
Zr2655     O2662   2.399   1_455  S
Zr2656     O2682   2.435       .  S
Zr2656     O2683   2.436       .  S
Zr2656     O2658   2.438       .  S
Zr2656     O2659   2.401       .  S
Zr2656     O2660   2.401       .  S
O2657      H2694   0.990       .  S
O2658      H2689   0.990       .  S
O2658      H2703   0.990       .  S
O2660      H2686   0.964       .  S
O2661     Zr2671   2.389       .  S
O2662     Zr2671   2.375       .  S
O2662      H2687   0.966       .  S
C2663      C3256   1.527       .  S
C2664      C3407   1.498       .  S
C2665      C3326   1.481       .  S
O2666      H2702   0.990       .  S
O2667      C2669   1.288       .  A
O2668      C2669   1.289       .  A
C2669      C3578   1.509       .  S
O2670     Zr2671   2.433   1_455  S
O2670      H2699   0.990       .  S
Zr2671     O2674   2.435       .  S
Zr2671     O2675   2.439   1_655  S
Zr2671     O2676   2.425       .  S
O2672      C2677   1.290       .  A
O2673      H2690   0.990       .  S
O2673      H2705   0.990       .  S
O2674      H2691   0.990       .  S
O2675      H2695   0.989       .  S
O2675      H2704   0.990       .  S
O2676      C2677   1.281       .  A
C2677      C3494   1.513       .  S
O2678      H2697   0.990       .  S
O2678      H2701   0.990       .  S
O2679      H2693   0.990       .  S
O2679      H2700   0.990       .  S
O2680      C2684   1.284       .  A
O2681      C2684   1.281       .  A
O2682      H2692   0.990       .  S
O2683      H2696   0.990       .  S
C2684      C3438   1.479       .  S
Zr2707     O2708   2.442       .  S
Zr2707     O2709   2.472       .  S
Zr2707     O2710   2.468       .  S
Zr2707     O2713   2.461       .  S
Zr2707     O2715   2.387       .  S
Zr2707     O2716   2.388       .  S
Zr2707     O2717   2.421       .  S
Zr2707     O2718   2.401       .  S
O2708      H2764   0.990       .  S
O2708      H2772   0.991       .  S
O2709      C2729   1.289       .  A
O2710      C2731   1.289       .  A
O2711     Zr2721   2.423       .  S
O2711      C2730   1.282       .  A
O2712     Zr2720   2.471       .  S
O2712      C2731   1.291       .  A
O2713      C2730   1.290       .  A
O2714     Zr2722   2.408       .  S
O2714      C2729   1.277       .  A
O2715     Zr2720   2.413       .  S
O2715     Zr2722   2.384       .  S
O2716     Zr2721   2.399       .  S
O2716     Zr2722   2.384       .  S
O2716      H2751   0.966       .  S
O2717     Zr2720   2.413       .  S
O2717     Zr2737   2.392       .  S
O2717      H2754   0.963       .  S
O2718     Zr2721   2.393       .  S
O2718     Zr2737   2.389       .  S
Zr2719     O2744   2.443       .  S
Zr2719     O2738   2.467       .  S
Zr2719     O2746   2.433       .  S
Zr2719     O2734   2.408       .  S
Zr2719     O2725   2.397       .  S
Zr2719     O2726   2.414       .  S
Zr2719     O2727   2.381       .  S
Zr2719     O2728   2.375       .  S
Zr2720     O2739   2.437       .  S
Zr2720     O2732   2.433       .  S
Zr2720     O2733   2.491       .  S
Zr2720     O2726   2.398       .  S
Zr2720     O2727   2.409       .  S
Zr2721     O2723   2.437       .  S
Zr2721     O2745   2.439       .  S
Zr2721     O2747   2.425       .  S
Zr2721     O2725   2.394       .  S
Zr2721     O2728   2.397       .  S
Zr2722     O2748   2.435       .  S
Zr2722     O2749   2.438       .  S
Zr2722     O2724   2.438       .  S
Zr2722     O2725   2.395       .  S
Zr2722     O2726   2.386       .  S
O2723      H2760   0.990       .  S
O2724      H2755   0.990       .  S
O2724      H2769   0.990       .  S
O2726      H2752   0.963       .  S
O2727     Zr2737   2.382       .  S
O2728     Zr2737   2.380       .  S
O2728      H2753   0.966       .  S
C2729      C4390   1.488       .  S
C2730      C4306   1.485       .  S
C2731      C4180   1.504       .  S
O2732      H2768   0.990       .  S
O2733      C2735   1.294       .  A
O2734      C2735   1.280       .  A
C2735      C3746   1.503       .  S
O2736     Zr2737   2.436       .  S
O2736      H2765   0.991       .  S
Zr2737     O2740   2.436       .  S
Zr2737     O2741   2.440       .  S
Zr2737     O2742   2.411       .  S
O2738      C2743   1.288       .  A
O2739      H2756   0.990       .  S
O2739      H2771   0.990       .  S
O2740      H2757   0.989       .  S
O2741      H2761   0.990       .  S
O2741      H2770   0.990       .  S
O2742      C2743   1.278       .  A
C2743      C3704   1.488       .  S
O2744      H2763   0.991       .  S
O2744      H2767   0.988       .  S
O2745      H2759   0.990       .  S
O2745      H2766   0.990       .  S
O2746      C2750   1.283       .  A
O2747      C2750   1.281       .  A
O2748      H2758   0.990       .  S
O2749      H2762   0.989       .  S
C2750      C3900   1.477       .  S
Zr2773     O2774   2.436       .  S
Zr2773     O2775   2.508       .  S
Zr2773     O2776   2.444       .  S
Zr2773     O2779   2.477   1_455  S
Zr2773     O2781   2.384       .  S
Zr2773     O2782   2.378       .  S
Zr2773     O2783   2.427   1_455  S
Zr2773     O2784   2.399   1_455  S
O2774      H2830   0.989       .  S
O2774      H2838   0.990       .  S
O2775      C2795   1.297       .  A
O2776      C2797   1.286   1_455  A
O2777     Zr2787   2.414       .  S
O2777      C2796   1.279       .  A
O2778     Zr2786   2.476       .  S
O2778      C2797   1.291       .  A
O2779      C2796   1.293       .  A
O2780     Zr2788   2.406       .  S
O2780      C2795   1.277       .  A
O2781     Zr2786   2.407   1_455  S
O2781     Zr2788   2.386       .  S
O2782     Zr2787   2.397   1_455  S
O2782     Zr2788   2.382       .  S
O2782      H2817   0.966       .  S
O2783     Zr2786   2.397       .  S
O2783     Zr2803   2.393       .  S
O2783      H2820   0.964       .  S
O2784     Zr2787   2.381       .  S
O2784     Zr2803   2.390       .  S
Zr2785     O2810   2.442       .  S
Zr2785     O2804   2.474       .  S
Zr2785     O2812   2.461       .  S
Zr2785     O2800   2.454       .  S
Zr2785     O2791   2.406       .  S
Zr2785     O2792   2.425       .  S
Zr2785     O2793   2.388       .  S
Zr2785     O2794   2.377       .  S
Zr2786     O2805   2.434       .  S
Zr2786     O2798   2.435   1_655  S
Zr2786     O2799   2.455       .  S
Zr2786     O2792   2.414       .  S
Zr2786     O2793   2.409       .  S
Zr2787     O2789   2.435       .  S
Zr2787     O2811   2.439   1_655  S
Zr2787     O2813   2.399       .  S
Zr2787     O2791   2.390       .  S
Zr2787     O2794   2.397       .  S
Zr2788     O2814   2.436       .  S
Zr2788     O2815   2.435       .  S
Zr2788     O2790   2.437       .  S
Zr2788     O2791   2.394   1_455  S
Zr2788     O2792   2.391   1_455  S
O2789      H2826   0.990       .  S
O2790      H2821   0.990       .  S
O2790      H2835   0.990       .  S
O2792      H2818   0.964       .  S
O2793     Zr2803   2.378       .  S
O2794     Zr2803   2.378       .  S
O2794      H2819   0.966       .  S
C2795      C4082   1.506       .  S
C2796      C4009   1.483       .  S
C2797      C3956   1.506   1_655  S
O2798      H2834   0.990       .  S
O2799      C2801   1.290       .  A
O2800      C2801   1.288       .  A
C2801      C3505   1.502       .  S
O2802     Zr2803   2.434       .  S
O2802      H2831   0.990       .  S
Zr2803     O2806   2.435       .  S
Zr2803     O2807   2.438       .  S
Zr2803     O2808   2.416       .  S
O2804      C2809   1.291       .  A
O2805      H2822   0.990       .  S
O2805      H2837   0.990       .  S
O2806      H2823   0.990       .  S
O2807      H2827   0.989       .  S
O2807      H2836   0.990       .  S
O2808      C2809   1.278       .  A
C2809      C3662   1.516       .  S
O2810      H2829   0.989       .  S
O2810      H2833   0.990       .  S
O2811      H2825   0.990       .  S
O2811      H2832   0.990       .  S
O2812      C2816   1.290       .  A
O2813      C2816   1.277       .  A
O2814      H2824   0.990       .  S
O2815      H2828   0.990       .  S
C2816      C3452   1.479       .  S
Zr2839     O2840   2.439       .  S
Zr2839     O2841   2.442       .  S
Zr2839     O2842   2.453       .  S
Zr2839     O2845   2.468       .  S
Zr2839     O2847   2.382       .  S
Zr2839     O2848   2.384   1_554  S
Zr2839     O2849   2.414       .  S
Zr2839     O2850   2.393       .  S
O2840      H2896   0.989       .  S
O2840      H2904   0.990       .  S
O2841      C2861   1.286       .  A
O2842      C2863   1.287       .  A
O2843     Zr2853   2.465       .  S
O2843      C2862   1.292   1_556  A
O2844     Zr2852   2.424       .  S
O2844      C2863   1.282       .  A
O2845      C2862   1.292       .  A
O2846     Zr2854   2.419   1_554  S
O2846      C2861   1.279       .  A
O2847     Zr2852   2.397       .  S
O2847     Zr2854   2.363   1_554  S
O2848     Zr2853   2.405       .  S
O2848     Zr2854   2.381       .  S
O2848      H2883   0.966       .  S
O2849     Zr2852   2.403       .  S
O2849     Zr2869   2.401       .  S
O2849      H2886   0.966       .  S
O2850     Zr2853   2.388   1_554  S
O2850     Zr2869   2.382       .  S
Zr2851     O2876   2.433       .  S
Zr2851     O2870   2.499       .  S
Zr2851     O2878   2.466       .  S
Zr2851     O2866   2.493       .  S
Zr2851     O2857   2.408       .  S
Zr2851     O2858   2.422       .  S
Zr2851     O2859   2.385   1_556  S
Zr2851     O2860   2.390       .  S
Zr2852     O2871   2.434       .  S
Zr2852     O2864   2.435       .  S
Zr2852     O2865   2.434       .  S
Zr2852     O2858   2.401   1_554  S
Zr2852     O2859   2.399       .  S
Zr2853     O2855   2.436       .  S
Zr2853     O2877   2.436       .  S
Zr2853     O2879   2.456       .  S
Zr2853     O2857   2.392       .  S
Zr2853     O2860   2.405       .  S
Zr2854     O2880   2.435       .  S
Zr2854     O2881   2.432       .  S
Zr2854     O2856   2.445   1_556  S
Zr2854     O2857   2.396       .  S
Zr2854     O2858   2.391       .  S
O2855      H2892   0.990       .  S
O2856      H2887   0.990       .  S
O2856      H2901   0.989       .  S
O2858      H2884   0.962       .  S
O2859     Zr2869   2.390       .  S
O2860     Zr2869   2.393   1_556  S
O2860      H2885   0.966       .  S
C2861      C3830   1.504       .  S
C2862      C3760   1.519       .  S
C2863      C3911   1.483       .  S
O2864      H2900   0.990       .  S
O2865      C2867   1.284       .  A
O2866      C2867   1.295   1_556  A
C2867      C4712   1.506   1_554  S
O2868     Zr2869   2.435       .  S
O2868      H2897   0.990       .  S
Zr2869     O2872   2.435       .  S
Zr2869     O2873   2.439       .  S
Zr2869     O2874   2.404       .  S
O2870      C2875   1.295       .  A
O2871      H2888   0.990       .  S
O2871      H2903   0.990       .  S
O2872      H2889   0.990       .  S
O2873      H2893   0.990   1_554  S
O2873      H2902   0.990       .  S
O2874      C2875   1.277   1_554  A
C2875      C4922   1.502       .  S
O2876      H2895   0.990       .  S
O2876      H2899   0.990       .  S
O2877      H2891   0.990       .  S
O2877      H2898   0.989       .  S
O2878      C2882   1.292       .  A
O2879      C2882   1.289       .  A
O2880      H2890   0.990       .  S
O2881      H2894   0.990       .  S
C2882      C4838   1.504       .  S
Zr2905     O2906   2.442       .  S
Zr2905     O2907   2.484       .  S
Zr2905     O2908   2.493       .  S
Zr2905     O2911   2.466       .  S
Zr2905     O2913   2.386       .  S
Zr2905     O2914   2.383   1_565  S
Zr2905     O2915   2.416       .  S
Zr2905     O2916   2.418       .  S
O2906      H2962   0.990       .  S
O2906      H2970   0.990       .  S
O2907      C2927   1.293       .  A
O2908      C2929   1.295       .  A
O2909     Zr2919   2.455       .  S
O2909      C2928   1.289       .  A
O2910     Zr2918   2.434       .  S
O2910      C2929   1.284       .  A
O2911      C2928   1.291   1_565  A
O2912     Zr2920   2.379       .  S
O2912      C2927   1.272   1_545  A
O2913     Zr2918   2.410       .  S
O2913     Zr2920   2.385   1_565  S
O2914     Zr2919   2.392       .  S
O2914     Zr2920   2.383       .  S
O2914      H2949   0.965       .  S
O2915     Zr2918   2.408       .  S
O2915     Zr2935   2.390       .  S
O2915      H2952   0.963       .  S
O2916     Zr2919   2.391   1_565  S
O2916     Zr2935   2.405       .  S
Zr2917     O2942   2.449       .  S
Zr2917     O2936   2.451       .  S
Zr2917     O2944   2.455       .  S
Zr2917     O2932   2.464       .  S
Zr2917     O2923   2.401       .  S
Zr2917     O2924   2.412       .  S
Zr2917     O2925   2.378   1_545  S
Zr2917     O2926   2.395       .  S
Zr2918     O2937   2.435       .  S
Zr2918     O2930   2.435       .  S
Zr2918     O2931   2.459       .  S
Zr2918     O2924   2.397   1_565  S
Zr2918     O2925   2.400       .  S
Zr2919     O2921   2.435       .  S
Zr2919     O2943   2.442       .  S
Zr2919     O2945   2.432       .  S
Zr2919     O2923   2.400       .  S
Zr2919     O2926   2.406       .  S
Zr2920     O2946   2.436       .  S
Zr2920     O2947   2.437       .  S
Zr2920     O2922   2.437       .  S
Zr2920     O2923   2.384       .  S
Zr2920     O2924   2.375       .  S
O2921      H2958   0.990       .  S
O2922      H2953   0.990       .  S
O2922      H2967   0.989   1_545  S
O2924      H2950   0.963       .  S
O2925     Zr2935   2.384       .  S
O2926     Zr2935   2.379   1_545  S
O2926      H2951   0.966       .  S
C2927      C4264   1.483       .  S
C2928      C4208   1.517       .  S
C2929      C4331   1.499       .  S
O2930      H2966   0.990       .  S
O2931      C2933   1.290   1_565  A
O2932      C2933   1.290       .  A
C2933      C4460   1.503       .  S
O2934     Zr2935   2.435       .  S
O2934      H2963   0.990       .  S
Zr2935     O2938   2.437       .  S
Zr2935     O2939   2.437   1_565  S
Zr2935     O2940   2.436   1_565  S
O2936      C2941   1.285       .  A
O2937      H2954   0.990       .  S
O2937      H2969   0.990       .  S
O2938      H2955   0.990       .  S
O2939      H2959   0.990       .  S
O2939      H2968   0.990       .  S
O2940      C2941   1.283       .  A
C2941      C4513   1.499       .  S
O2942      H2961   0.990       .  S
O2942      H2965   0.991       .  S
O2943      H2957   0.990       .  S
O2943      H2964   0.990       .  S
O2944      C2948   1.288       .  A
O2945      C2948   1.284       .  A
O2946      H2956   0.990       .  S
O2947      H2960   0.989       .  S
C2948      C4667   1.484       .  S
Zr2971     O2972   2.444       .  S
Zr2971     O2973   2.452       .  S
Zr2971     O2974   2.438       .  S
Zr2971     O2977   2.448       .  S
Zr2971     O2979   2.382       .  S
Zr2971     O2980   2.385       .  S
Zr2971     O2981   2.415       .  S
Zr2971     O2982   2.388       .  S
O2972      H3028   0.989       .  S
O2972      H3036   0.990       .  S
O2973      C2993   1.286       .  A
O2974      C2995   1.285       .  A
O2975     Zr2985   2.443       .  S
O2975      C2994   1.287       .  A
O2976     Zr2984   2.448       .  S
O2976      C2995   1.286       .  A
O2977      C2994   1.288       .  A
O2978     Zr2986   2.422       .  S
O2978      C2993   1.280       .  A
O2979     Zr2984   2.408       .  S
O2979     Zr2986   2.384       .  S
O2980     Zr2985   2.407       .  S
O2980     Zr2986   2.374       .  S
O2980      H3015   0.966       .  S
O2981     Zr2984   2.405       .  S
O2981     Zr3001   2.377       .  S
O2981      H3018   0.964       .  S
O2982     Zr2985   2.379       .  S
O2982     Zr3001   2.360       .  S
Zr2983     O3008   2.441       .  S
Zr2983     O3002   2.506       .  S
Zr2983     O3010   2.495       .  S
Zr2983     O2998   2.493       .  S
Zr2983     O2989   2.410       .  S
Zr2983     O2990   2.427       .  S
Zr2983     O2991   2.388       .  S
Zr2983     O2992   2.388       .  S
Zr2984     O3003   2.435       .  S
Zr2984     O2996   2.434       .  S
Zr2984     O2997   2.450       .  S
Zr2984     O2990   2.400       .  S
Zr2984     O2991   2.403       .  S
Zr2985     O2987   2.435       .  S
Zr2985     O3009   2.437       .  S
Zr2985     O3011   2.434       .  S
Zr2985     O2989   2.389       .  S
Zr2985     O2992   2.400       .  S
Zr2986     O3012   2.438       .  S
Zr2986     O3013   2.430       .  S
Zr2986     O2988   2.437       .  S
Zr2986     O2989   2.392       .  S
Zr2986     O2990   2.389       .  S
O2987      H3024   0.990       .  S
O2988      H3019   0.990       .  S
O2988      H3033   0.990       .  S
O2990      H3016   0.962       .  S
O2991     Zr3001   2.394       .  S
O2992     Zr3001   2.387       .  S
O2992      H3017   0.966       .  S
C2993      C4499   1.504       .  S
C2994      C4572   1.494       .  S
C2995      C4642   1.484       .  S
O2996      H3032   0.990       .  S
O2997      C2999   1.287       .  A
O2998      C2999   1.295       .  A
C2999      C3550   1.503       .  S
O3000     Zr3001   2.437       .  S
O3000      H3029   0.990       .  S
Zr3001     O3004   2.438       .  S
Zr3001     O3005   2.442       .  S
Zr3001     O3006   2.359       .  S
O3002      C3007   1.297       .  A
O3003      H3020   0.990       .  S
O3003      H3035   0.990       .  S
O3004      H3021   0.990       .  S
O3005      H3025   0.990       .  S
O3005      H3034   0.990       .  S
O3006      C3007   1.268       .  A
C3007      C3634   1.484       .  S
O3008      H3027   0.990       .  S
O3008      H3031   0.990       .  S
O3009      H3023   0.990       .  S
O3009      H3030   0.990       .  S
O3010      C3014   1.297       .  A
O3011      C3014   1.285       .  A
O3012      H3022   0.990       .  S
O3013      H3026   0.990       .  S
C3014      C3480   1.505       .  S
Zr3037     O3038   2.443       .  S
Zr3037     O3039   2.475       .  S
Zr3037     O3040   2.511       .  S
Zr3037     O3043   2.478       .  S
Zr3037     O3045   2.389       .  S
Zr3037     O3046   2.394       .  S
Zr3037     O3047   2.413   1_565  S
Zr3037     O3048   2.415   1_565  S
O3038      H3094   0.990       .  S
O3038      H3102   0.990       .  S
O3039      C3059   1.293       .  A
O3040      C3061   1.299       .  A
O3041     Zr3051   2.469   1_565  S
O3041      C3060   1.293       .  A
O3042     Zr3050   2.385       .  S
O3042      C3061   1.275   1_545  A
O3043      C3060   1.295       .  A
O3044     Zr3052   2.417       .  S
O3044      C3059   1.278       .  A
O3045     Zr3050   2.410   1_565  S
O3045     Zr3052   2.388       .  S
O3046     Zr3051   2.398   1_565  S
O3046     Zr3052   2.374       .  S
O3046      H3081   0.965       .  S
O3047     Zr3050   2.407       .  S
O3047     Zr3067   2.374       .  S
O3047      H3084   0.964       .  S
O3048     Zr3051   2.392       .  S
O3048     Zr3067   2.379       .  S
Zr3049     O3074   2.439       .  S
Zr3049     O3068   2.500       .  S
Zr3049     O3076   2.466       .  S
Zr3049     O3064   2.504       .  S
Zr3049     O3055   2.422   1_545  S
Zr3049     O3056   2.420   1_545  S
Zr3049     O3057   2.373       .  S
Zr3049     O3058   2.406       .  S
Zr3050     O3069   2.435       .  S
Zr3050     O3062   2.433   1_545  S
Zr3050     O3063   2.428       .  S
Zr3050     O3056   2.385   1_545  S
Zr3050     O3057   2.386       .  S
Zr3051     O3053   2.435       .  S
Zr3051     O3075   2.436   1_545  S
Zr3051     O3077   2.453       .  S
Zr3051     O3055   2.392   1_545  S
Zr3051     O3058   2.407       .  S
Zr3052     O3078   2.435       .  S
Zr3052     O3079   2.433       .  S
Zr3052     O3054   2.435       .  S
Zr3052     O3055   2.394       .  S
Zr3052     O3056   2.388       .  S
O3053      H3090   0.990       .  S
O3054      H3085   0.990       .  S
O3054      H3099   0.990       .  S
O3056      H3082   0.963       .  S
O3057     Zr3067   2.395       .  S
O3058     Zr3067   2.383       .  S
O3058      H3083   0.966       .  S
C3059      C5146   1.503       .  S
C3060      C4992   1.522       .  S
C3061      C5062   1.489       .  S
O3062      H3098   0.989       .  S
O3063      C3065   1.282       .  A
O3064      C3065   1.298       .  A
C3065      C4432   1.504       .  S
O3066     Zr3067   2.435       .  S
O3066      H3095   0.990       .  S
Zr3067     O3070   2.437       .  S
Zr3067     O3071   2.438       .  S
Zr3067     O3072   2.378       .  S
O3068      C3073   1.296       .  A
O3069      H3086   0.990       .  S
O3069      H3101   0.990       .  S
O3070      H3087   0.990       .  S
O3071      H3091   0.990       .  S
O3071      H3100   0.990       .  S
O3072      C3073   1.273       .  A
C3073      C4558   1.492       .  S
O3074      H3093   0.991       .  S
O3074      H3097   0.990       .  S
O3075      H3089   0.990       .  S
O3075      H3096   0.989       .  S
O3076      C3080   1.288       .  A
O3077      C3080   1.288       .  A
O3078      H3088   0.990       .  S
O3079      H3092   0.990       .  S
C3080      C4488   1.498       .  S
Zr3103     O3104   2.443       .  S
Zr3103     O3105   2.471       .  S
Zr3103     O3106   2.435       .  S
Zr3103     O3109   2.466       .  S
Zr3103     O3111   2.386   1_455  S
Zr3103     O3112   2.388       .  S
Zr3103     O3113   2.422       .  S
Zr3103     O3114   2.380       .  S
O3104      H3160   0.990       .  S
O3104      H3168   0.990       .  S
O3105      C3125   1.288       .  A
O3106      C3127   1.284       .  A
O3107     Zr3117   2.434       .  S
O3107      C3126   1.285       .  A
O3108     Zr3116   2.458       .  S
O3108      C3127   1.289   1_655  A
O3109      C3126   1.290       .  A
O3110     Zr3118   2.399       .  S
O3110      C3125   1.276   1_655  A
O3111     Zr3116   2.405       .  S
O3111     Zr3118   2.389       .  S
O3112     Zr3117   2.401       .  S
O3112     Zr3118   2.393   1_455  S
O3112      H3147   0.966       .  S
O3113     Zr3116   2.399   1_455  S
O3113     Zr3133   2.384       .  S
O3113      H3150   0.962       .  S
O3114     Zr3117   2.359       .  S
O3114     Zr3133   2.362       .  S
Zr3115     O3140   2.443       .  S
Zr3115     O3134   2.439       .  S
Zr3115     O3142   2.467       .  S
Zr3115     O3130   2.449       .  S
Zr3115     O3121   2.398   1_655  S
Zr3115     O3122   2.414       .  S
Zr3115     O3123   2.383       .  S
Zr3115     O3124   2.384   1_655  S
Zr3116     O3135   2.438       .  S
Zr3116     O3128   2.435       .  S
Zr3116     O3129   2.451       .  S
Zr3116     O3122   2.411       .  S
Zr3116     O3123   2.398       .  S
Zr3117     O3119   2.436       .  S
Zr3117     O3141   2.436       .  S
Zr3117     O3143   2.414       .  S
Zr3117     O3121   2.393       .  S
Zr3117     O3124   2.402       .  S
Zr3118     O3144   2.436   1_655  S
Zr3118     O3145   2.436       .  S
Zr3118     O3120   2.437       .  S
Zr3118     O3121   2.388   1_655  S
Zr3118     O3122   2.386       .  S
O3119      H3156   0.990       .  S
O3120      H3151   0.990       .  S
O3120      H3165   0.990       .  S
O3122      H3148   0.965       .  S
O3123     Zr3133   2.372   1_655  S
O3124     Zr3133   2.389       .  S
O3124      H3149   0.966       .  S
C3125      C3984   1.487       .  S
C3126      C4138   1.496       .  S
C3127      C3928   1.485       .  S
O3128      H3164   0.990       .  S
O3129      C3131   1.288       .  A
O3130      C3131   1.288       .  A
C3131      C5160   1.499       .  S
O3132     Zr3133   2.434       .  S
O3132      H3161   0.990       .  S
Zr3133     O3136   2.439       .  S
Zr3133     O3137   2.438       .  S
Zr3133     O3138   2.384       .  S
O3134      C3139   1.284       .  A
O3135      H3152   0.990       .  S
O3135      H3167   0.990       .  S
O3136      H3153   0.990       .  S
O3137      H3157   0.990       .  S
O3137      H3166   0.990       .  S
O3138      C3139   1.273   1_455  A
C3139      C4936   1.463       .  S
O3140      H3159   0.990       .  S
O3140      H3163   0.990       .  S
O3141      H3155   0.990       .  S
O3141      H3162   0.990       .  S
O3142      C3146   1.289   1_655  A
O3143      C3146   1.280       .  A
O3144      H3154   0.990       .  S
O3145      H3158   0.990       .  S
C3146      C5006   1.483       .  S
C3169      C3170   1.416   1_554  A
C3169      C3174   1.412       .  A
C3170      C3171   1.414       .  A
C3170      C3175   1.452       .  S
C3171      C3172   1.418   1_556  A
C3171      C3178   1.452       .  S
C3172      C3173   1.414       .  A
C3173      C3174   1.420       .  A
C3173      C3176   1.446       .  S
C3174      C3177   1.445       .  S
C3175      N3182   1.157       .  T
C3176      N3181   1.156       .  T
C3177      N3179   1.156       .  T
C3178      N3180   1.157       .  T
C3183      C3184   1.414   1_545  A
C3183      C3188   1.416       .  A
C3184      C3185   1.423       .  A
C3184      C3189   1.448       .  S
C3185      C3186   1.420   1_565  A
C3185      C3192   1.450       .  S
C3186      C3187   1.416       .  A
C3187      C3188   1.406       .  A
C3187      C3190   1.454       .  S
C3188      C3191   1.454       .  S
C3189      N3196   1.157       .  T
C3190      N3195   1.157       .  T
C3191      N3193   1.157       .  T
C3192      N3194   1.157       .  T
C3197      C3198   1.415       .  A
C3197      C3202   1.411       .  A
C3198      C3199   1.425       .  A
C3198      C3203   1.448       .  S
C3199      C3200   1.416       .  A
C3199      C3206   1.447       .  S
C3200      C3201   1.418       .  A
C3201      C3202   1.412       .  A
C3201      C3204   1.451   1_554  S
C3202      C3205   1.450   1_554  S
C3203      N3210   1.157       .  T
C3204      N3209   1.157       .  T
C3205      N3207   1.157       .  T
C3206      N3208   1.157       .  T
C3211      C3212   1.417       .  A
C3211      C3216   1.419       .  A
C3212      C3213   1.404       .  A
C3212      C3217   1.452       .  S
C3213      C3214   1.411       .  A
C3213      C3220   1.452       .  S
C3214      C3215   1.406       .  A
C3215      C3216   1.405       .  A
C3215      C3218   1.451       .  S
C3216      C3219   1.451       .  S
C3217      N3224   1.157   1_556  T
C3218      N3223   1.157       .  T
C3219      N3221   1.158       .  T
C3220      N3222   1.157       .  T
C3225      C3226   1.409       .  A
C3225      C3230   1.418   1_556  A
C3226      C3227   1.418       .  A
C3226      C3231   1.451       .  S
C3227      C3228   1.428   1_556  A
C3227      C3234   1.449       .  S
C3228      C3229   1.419       .  A
C3229      C3230   1.422       .  A
C3229      C3232   1.450       .  S
C3230      C3233   1.449       .  S
C3231      N3238   1.157       .  T
C3232      N3237   1.157       .  T
C3233      N3235   1.156       .  T
C3234      N3236   1.157       .  T
C3239      C3240   1.411   1_654  A
C3239      C3244   1.412       .  A
C3240      C3241   1.417   1_455  A
C3240      C3245   1.450       .  S
C3241      C3242   1.417   1_556  A
C3241      C3248   1.449   1_655  S
C3242      C3243   1.415       .  A
C3243      C3244   1.422       .  A
C3243      C3246   1.447       .  S
C3244      C3247   1.446       .  S
C3245      N3252   1.157       .  T
C3246      N3251   1.157       .  T
C3247      N3249   1.156       .  T
C3248      N3250   1.157       .  T
C3253      C3254   1.408       .  A
C3253      C3258   1.414       .  A
C3254      C3255   1.421   1_455  A
C3254      C3259   1.451   1_455  S
C3255      C3256   1.428   1_655  A
C3255      C3262   1.450       .  S
C3256      C3257   1.422       .  A
C3257      C3258   1.422       .  A
C3257      C3260   1.447       .  S
C3258      C3261   1.451       .  S
C3259      N3266   1.157       .  T
C3260      N3265   1.156       .  T
C3261      N3263   1.157       .  T
C3262      N3264   1.157       .  T
C3267      C3268   1.401       .  A
C3267      C3272   1.419   1_655  A
C3268      C3269   1.403       .  A
C3268      C3273   1.449       .  S
C3269      C3270   1.421   1_655  A
C3269      C3276   1.448       .  S
C3270      C3271   1.417       .  A
C3271      C3272   1.405       .  A
C3271      C3274   1.452       .  S
C3272      C3275   1.452       .  S
C3273      N3280   1.157       .  T
C3274      N3279   1.158       .  T
C3275      N3277   1.157       .  T
C3276      N3278   1.157       .  T
C3281      C3282   1.409   1_545  A
C3281      C3286   1.407       .  A
C3282      C3283   1.411       .  A
C3282      C3287   1.445       .  S
C3283      C3284   1.416   1_565  A
C3283      C3290   1.450       .  S
C3284      C3285   1.422   1_545  A
C3285      C3286   1.401   1_565  A
C3285      C3288   1.452       .  S
C3286      C3289   1.453       .  S
C3287      N3294   1.156       .  T
C3288      N3293   1.157       .  T
C3289      N3291   1.157       .  T
C3290      N3292   1.157       .  T
C3295      C3296   1.412       .  A
C3295      C3300   1.406       .  A
C3296      C3297   1.410       .  A
C3296      C3301   1.450   1_545  S
C3297      C3298   1.410       .  A
C3297      C3304   1.451       .  S
C3298      C3299   1.411       .  A
C3299      C3300   1.402       .  A
C3299      C3302   1.448       .  S
C3300      C3303   1.451       .  S
C3301      N3308   1.157       .  T
C3302      N3307   1.157       .  T
C3303      N3305   1.157       .  T
C3304      N3306   1.157       .  T
C3309      C3310   1.408   1_655  A
C3309      C3314   1.415   1_565  A
C3310      C3311   1.409       .  A
C3310      C3315   1.450       .  S
C3311      C3312   1.411   1_455  A
C3311      C3318   1.450       .  S
C3312      C3313   1.407   1_565  A
C3313      C3314   1.410       .  A
C3313      C3316   1.451       .  S
C3314      C3317   1.451       .  S
C3315      N3322   1.157       .  T
C3316      N3321   1.157       .  T
C3317      N3319   1.157       .  T
C3318      N3320   1.157       .  T
C3323      C3324   1.416       .  A
C3323      C3328   1.414   1_655  A
C3324      C3325   1.409       .  A
C3324      C3329   1.450       .  S
C3325      C3326   1.408       .  A
C3325      C3332   1.450       .  S
C3326      C3327   1.415       .  A
C3327      C3328   1.409   1_655  A
C3327      C3330   1.452   1_655  S
C3328      C3331   1.451       .  S
C3329      N3336   1.157       .  T
C3330      N3335   1.157       .  T
C3331      N3333   1.157       .  T
C3332      N3334   1.157       .  T
C3337      C3338   1.416       .  A
C3337      C3342   1.413       .  A
C3338      C3339   1.415       .  A
C3338      C3343   1.448       .  S
C3339      C3340   1.404       .  A
C3339      C3346   1.445       .  S
C3340      C3341   1.406       .  A
C3341      C3342   1.404       .  A
C3341      C3344   1.450       .  S
C3342      C3345   1.445       .  S
C3343      N3350   1.157       .  T
C3344      N3349   1.157       .  T
C3345      N3347   1.155       .  T
C3346      N3348   1.157       .  T
C3351      C3352   1.408       .  A
C3351      C3356   1.421       .  A
C3352      C3353   1.403       .  A
C3352      C3357   1.452       .  S
C3353      C3354   1.422       .  A
C3353      C3360   1.452       .  S
C3354      C3355   1.410       .  A
C3355      C3356   1.409       .  A
C3355      C3358   1.450       .  S
C3356      C3359   1.448       .  S
C3357      N3364   1.157       .  T
C3358      N3363   1.157       .  T
C3359      N3361   1.156       .  T
C3360      N3362   1.157       .  T
C3365      C3366   1.414       .  A
C3365      C3370   1.409       .  A
C3366      C3367   1.411       .  A
C3366      C3371   1.448       .  S
C3367      C3368   1.413       .  A
C3367      C3374   1.449       .  S
C3368      C3369   1.418       .  A
C3369      C3370   1.408       .  A
C3369      C3372   1.451       .  S
C3370      C3373   1.450       .  S
C3371      N3378   1.157       .  T
C3372      N3377   1.157       .  T
C3373      N3375   1.157       .  T
C3374      N3376   1.157       .  T
C3379      C3380   1.411       .  A
C3379      C3384   1.408       .  A
C3380      C3381   1.411       .  A
C3380      C3385   1.450       .  S
C3381      C3382   1.409       .  A
C3381      C3388   1.448       .  S
C3382      C3383   1.412       .  A
C3383      C3384   1.409       .  A
C3383      C3386   1.448       .  S
C3384      C3387   1.452       .  S
C3385      N3392   1.157       .  T
C3386      N3391   1.156       .  T
C3387      N3389   1.157       .  T
C3388      N3390   1.157       .  T
C3393      C3394   1.427       .  A
C3393      C3398   1.428       .  A
C3394      C3395   1.410       .  A
C3394      C3399   1.451       .  S
C3395      C3396   1.407       .  A
C3395      C3402   1.455       .  S
C3396      C3397   1.404       .  A
C3397      C3398   1.415       .  A
C3397      C3400   1.451       .  S
C3398      C3401   1.451       .  S
C3399      N3406   1.157       .  T
C3400      N3405   1.157       .  T
C3401      N3403   1.157       .  T
C3402      N3404   1.157       .  T
C3407      C3408   1.419       .  A
C3407      C3412   1.423       .  A
C3408      C3409   1.409       .  A
C3408      C3413   1.451       .  S
C3409      C3410   1.412       .  A
C3409      C3416   1.452       .  S
C3410      C3411   1.407       .  A
C3411      C3412   1.412       .  A
C3411      C3414   1.449       .  S
C3412      C3415   1.450       .  S
C3413      N3420   1.157       .  T
C3414      N3419   1.157       .  T
C3415      N3417   1.157       .  T
C3416      N3418   1.157       .  T
C3421      C3422   1.412       .  A
C3421      C3426   1.415       .  A
C3422      C3423   1.413       .  A
C3422      C3427   1.447       .  S
C3423      C3424   1.411       .  A
C3423      C3430   1.449       .  S
C3424      C3425   1.410       .  A
C3425      C3426   1.409       .  A
C3425      C3428   1.451       .  S
C3426      C3429   1.450       .  S
C3427      N3434   1.158       .  T
C3428      N3433   1.157       .  T
C3429      N3431   1.157       .  T
C3430      N3432   1.157       .  T
C3435      C3436   1.416       .  A
C3435      C3440   1.412       .  A
C3436      C3437   1.411       .  A
C3436      C3441   1.451       .  S
C3437      C3438   1.410       .  A
C3437      C3444   1.450   1_655  S
C3438      C3439   1.412       .  A
C3439      C3440   1.405       .  A
C3439      C3442   1.452       .  S
C3440      C3443   1.450       .  S
C3441      N3448   1.157       .  T
C3442      N3447   1.157       .  T
C3443      N3445   1.157       .  T
C3444      N3446   1.158       .  T
C3449      C3450   1.410       .  A
C3449      C3454   1.410       .  A
C3450      C3451   1.410       .  A
C3450      C3455   1.450       .  S
C3451      C3452   1.412       .  A
C3451      C3458   1.449       .  S
C3452      C3453   1.414       .  A
C3453      C3454   1.407       .  A
C3453      C3456   1.451       .  S
C3454      C3457   1.452       .  S
C3455      N3462   1.157       .  T
C3456      N3461   1.157       .  T
C3457      N3459   1.157       .  T
C3458      N3460   1.157   1_655  T
C3463      C3464   1.410       .  A
C3463      C3468   1.404       .  A
C3464      C3465   1.412       .  A
C3464      C3469   1.453       .  S
C3465      C3466   1.418       .  A
C3465      C3472   1.446       .  S
C3466      C3467   1.431       .  A
C3467      C3468   1.412       .  A
C3467      C3470   1.452       .  S
C3468      C3471   1.451       .  S
C3469      N3476   1.157       .  T
C3470      N3475   1.157       .  T
C3471      N3473   1.157       .  T
C3472      N3474   1.156       .  T
C3477      C3478   1.415       .  A
C3477      C3482   1.412       .  A
C3478      C3479   1.420       .  A
C3478      C3483   1.450       .  S
C3479      C3480   1.417       .  A
C3479      C3486   1.451       .  S
C3480      C3481   1.415       .  A
C3481      C3482   1.417       .  A
C3481      C3484   1.446       .  S
C3482      C3485   1.451       .  S
C3483      N3490   1.157       .  T
C3484      N3489   1.156       .  T
C3485      N3487   1.157       .  T
C3486      N3488   1.157       .  T
C3491      C3492   1.417       .  A
C3491      C3496   1.412       .  A
C3492      C3493   1.411       .  A
C3492      C3497   1.450       .  S
C3493      C3494   1.415       .  A
C3493      C3500   1.450       .  S
C3494      C3495   1.425       .  A
C3495      C3496   1.424       .  A
C3495      C3498   1.449       .  S
C3496      C3499   1.449       .  S
C3497      N3504   1.156       .  T
C3498      N3503   1.157   1_655  T
C3499      N3501   1.157       .  T
C3500      N3502   1.156       .  T
C3505      C3506   1.413       .  A
C3505      C3510   1.418       .  A
C3506      C3507   1.416       .  A
C3506      C3511   1.451       .  S
C3507      C3508   1.424       .  A
C3507      C3514   1.453       .  S
C3508      C3509   1.418       .  A
C3509      C3510   1.416       .  A
C3509      C3512   1.450       .  S
C3510      C3513   1.451       .  S
C3511      N3518   1.157       .  T
C3512      N3517   1.157       .  T
C3513      N3515   1.157       .  T
C3514      N3516   1.157       .  T
C3519      C3520   1.419       .  A
C3519      C3524   1.411       .  A
C3520      C3521   1.403       .  A
C3520      C3525   1.448       .  S
C3521      C3522   1.410       .  A
C3521      C3528   1.451       .  S
C3522      C3523   1.415       .  A
C3523      C3524   1.408       .  A
C3523      C3526   1.449       .  S
C3524      C3527   1.449       .  S
C3525      N3532   1.155       .  T
C3526      N3531   1.157       .  T
C3527      N3529   1.157       .  T
C3528      N3530   1.157       .  T
C3533      C3534   1.411       .  A
C3533      C3538   1.409       .  A
C3534      C3535   1.410       .  A
C3534      C3539   1.449       .  S
C3535      C3536   1.412       .  A
C3535      C3542   1.445       .  S
C3536      C3537   1.414       .  A
C3537      C3538   1.411       .  A
C3537      C3540   1.451       .  S
C3538      C3541   1.446       .  S
C3539      N3546   1.157       .  T
C3540      N3545   1.157       .  T
C3541      N3543   1.156       .  T
C3542      N3544   1.155       .  T
C3547      C3548   1.415       .  A
C3547      C3552   1.411       .  A
C3548      C3549   1.422       .  A
C3548      C3553   1.448       .  S
C3549      C3550   1.413       .  A
C3549      C3556   1.448       .  S
C3550      C3551   1.416       .  A
C3551      C3552   1.418       .  A
C3551      C3554   1.449       .  S
C3552      C3555   1.451       .  S
C3553      N3560   1.157       .  T
C3554      N3559   1.157       .  T
C3555      N3557   1.157       .  T
C3556      N3558   1.157       .  T
C3561      C3562   1.429       .  A
C3561      C3566   1.421       .  A
C3562      C3563   1.414       .  A
C3562      C3567   1.451       .  S
C3563      C3564   1.404       .  A
C3563      C3570   1.453       .  S
C3564      C3565   1.411       .  A
C3565      C3566   1.413       .  A
C3565      C3568   1.451       .  S
C3566      C3569   1.451       .  S
C3567      N3574   1.157       .  T
C3568      N3573   1.157       .  T
C3569      N3571   1.157       .  T
C3570      N3572   1.157       .  T
C3575      C3576   1.418       .  A
C3575      C3580   1.421       .  A
C3576      C3577   1.418       .  A
C3576      C3581   1.449       .  S
C3577      C3578   1.419       .  A
C3577      C3584   1.451       .  S
C3578      C3579   1.416       .  A
C3579      C3580   1.416       .  A
C3579      C3582   1.450       .  S
C3580      C3583   1.453       .  S
C3581      N3588   1.157       .  T
C3582      N3587   1.157       .  T
C3583      N3585   1.157       .  T
C3584      N3586   1.157       .  T
C3589      C3590   1.409       .  A
C3589      C3594   1.410       .  A
C3590      C3591   1.408       .  A
C3590      C3595   1.449       .  S
C3591      C3592   1.410       .  A
C3591      C3598   1.449       .  S
C3592      C3593   1.411       .  A
C3593      C3594   1.402       .  A
C3593      C3596   1.449       .  S
C3594      C3597   1.454       .  S
C3595      N3602   1.157       .  T
C3596      N3601   1.156       .  T
C3597      N3599   1.157       .  T
C3598      N3600   1.157       .  T
C3603      C3604   1.421       .  A
C3603      C3608   1.432       .  A
C3604      C3605   1.411       .  A
C3604      C3609   1.448       .  S
C3605      C3606   1.406       .  A
C3605      C3612   1.449       .  S
C3606      C3607   1.400       .  A
C3607      C3608   1.403       .  A
C3607      C3610   1.450       .  S
C3608      C3611   1.450       .  S
C3609      N3616   1.157       .  T
C3610      N3615   1.156       .  T
C3611      N3613   1.157       .  T
C3612      N3614   1.157       .  T
C3617      C3618   1.411       .  A
C3617      C3622   1.409       .  A
C3618      C3619   1.402       .  A
C3618      C3623   1.448       .  S
C3619      C3620   1.417       .  A
C3619      C3626   1.452       .  S
C3620      C3621   1.418       .  A
C3621      C3622   1.407       .  A
C3621      C3624   1.450       .  S
C3622      C3625   1.449       .  S
C3623      N3630   1.155       .  T
C3624      N3629   1.157       .  T
C3625      N3627   1.157       .  T
C3626      N3628   1.157       .  T
C3631      C3632   1.414       .  A
C3631      C3636   1.414       .  A
C3632      C3633   1.415       .  A
C3632      C3637   1.450       .  S
C3633      C3634   1.410       .  A
C3633      C3640   1.451       .  S
C3634      C3635   1.414       .  A
C3635      C3636   1.414       .  A
C3635      C3638   1.452       .  S
C3636      C3639   1.450       .  S
C3637      N3644   1.157       .  T
C3638      N3643   1.157       .  T
C3639      N3641   1.157       .  T
C3640      N3642   1.157       .  T
C3645      C3646   1.414       .  A
C3645      C3650   1.419       .  A
C3646      C3647   1.422       .  A
C3646      C3651   1.446       .  S
C3647      C3648   1.420       .  A
C3647      C3654   1.451       .  S
C3648      C3649   1.414       .  A
C3649      C3650   1.410       .  A
C3649      C3652   1.451       .  S
C3650      C3653   1.453       .  S
C3651      N3658   1.157       .  T
C3652      N3657   1.157       .  T
C3653      N3655   1.157       .  T
C3654      N3656   1.157       .  T
C3659      C3660   1.414       .  A
C3659      C3664   1.409       .  A
C3660      C3661   1.418       .  A
C3660      C3665   1.449       .  S
C3661      C3662   1.419       .  A
C3661      C3668   1.451       .  S
C3662      C3663   1.427       .  A
C3663      C3664   1.417       .  A
C3663      C3666   1.451       .  S
C3664      C3667   1.452       .  S
C3665      N3672   1.157       .  T
C3666      N3671   1.157       .  T
C3667      N3669   1.157       .  T
C3668      N3670   1.157       .  T
C3673      C3674   1.412       .  A
C3673      C3678   1.413       .  A
C3674      C3675   1.414       .  A
C3674      C3679   1.450       .  S
C3675      C3676   1.412       .  A
C3675      C3682   1.451       .  S
C3676      C3677   1.413       .  A
C3677      C3678   1.416       .  A
C3677      C3680   1.451       .  S
C3678      C3681   1.449       .  S
C3679      N3686   1.157       .  T
C3680      N3685   1.157       .  T
C3681      N3683   1.157       .  T
C3682      N3684   1.157       .  T
C3687      C3688   1.407       .  A
C3687      C3692   1.414       .  A
C3688      C3689   1.415       .  A
C3688      C3693   1.453       .  S
C3689      C3690   1.428       .  A
C3689      C3696   1.452       .  S
C3690      C3691   1.419       .  A
C3691      C3692   1.417       .  A
C3691      C3694   1.451       .  S
C3692      C3695   1.451       .  S
C3693      N3700   1.157       .  T
C3694      N3699   1.157       .  T
C3695      N3697   1.157       .  T
C3696      N3698   1.158       .  T
C3701      C3702   1.417       .  A
C3701      C3706   1.422       .  A
C3702      C3703   1.421       .  A
C3702      C3707   1.448       .  S
C3703      C3704   1.413       .  A
C3703      C3710   1.449       .  S
C3704      C3705   1.408       .  A
C3705      C3706   1.408       .  A
C3705      C3708   1.453       .  S
C3706      C3709   1.453       .  S
C3707      N3714   1.157       .  T
C3708      N3713   1.157       .  T
C3709      N3711   1.157       .  T
C3710      N3712   1.157       .  T
C3715      C3716   1.408       .  A
C3715      C3720   1.409       .  A
C3716      C3717   1.403       .  A
C3716      C3721   1.450       .  S
C3717      C3718   1.421       .  A
C3717      C3724   1.450       .  S
C3718      C3719   1.419       .  A
C3719      C3720   1.408       .  A
C3719      C3722   1.449       .  S
C3720      C3723   1.449       .  S
C3721      N3728   1.157       .  T
C3722      N3727   1.157       .  T
C3723      N3725   1.157       .  T
C3724      N3726   1.157       .  T
C3729      C3730   1.414       .  A
C3729      C3734   1.417   1_556  A
C3730      C3731   1.418       .  A
C3730      C3735   1.450       .  S
C3731      C3732   1.414       .  A
C3731      C3738   1.449       .  S
C3732      C3733   1.414   1_556  A
C3733      C3734   1.422       .  A
C3733      C3736   1.450       .  S
C3734      C3737   1.451       .  S
C3735      N3742   1.157       .  T
C3736      N3741   1.157       .  T
C3737      N3739   1.157       .  T
C3738      N3740   1.157       .  T
C3743      C3744   1.411       .  A
C3743      C3748   1.414       .  A
C3744      C3745   1.427       .  A
C3744      C3749   1.447       .  S
C3745      C3746   1.421       .  A
C3745      C3752   1.448       .  S
C3746      C3747   1.418       .  A
C3747      C3748   1.405       .  A
C3747      C3750   1.456       .  S
C3748      C3751   1.452       .  S
C3749      N3756   1.157       .  T
C3750      N3755   1.157       .  T
C3751      N3753   1.157       .  T
C3752      N3754   1.157       .  T
C3757      C3758   1.413       .  A
C3757      C3762   1.417       .  A
C3758      C3759   1.426       .  A
C3758      C3763   1.447       .  S
C3759      C3760   1.425       .  A
C3759      C3766   1.449       .  S
C3760      C3761   1.419       .  A
C3761      C3762   1.416       .  A
C3761      C3764   1.450   1_554  S
C3762      C3765   1.452   1_554  S
C3763      N3770   1.157       .  T
C3764      N3769   1.157       .  T
C3765      N3767   1.157       .  T
C3766      N3768   1.157       .  T
C3771      C3772   1.427   1_554  A
C3771      C3776   1.424       .  A
C3772      C3773   1.407       .  A
C3772      C3777   1.450       .  S
C3773      C3774   1.403       .  A
C3773      C3780   1.450       .  S
C3774      C3775   1.407       .  A
C3775      C3776   1.406   1_556  A
C3775      C3778   1.450       .  S
C3776      C3779   1.450       .  S
C3777      N3784   1.157       .  T
C3778      N3783   1.157   1_556  T
C3779      N3781   1.157       .  T
C3780      N3782   1.157       .  T
C3785      C3786   1.420       .  A
C3785      C3790   1.425       .  A
C3786      C3787   1.402       .  A
C3786      C3791   1.451       .  S
C3787      C3788   1.407       .  A
C3787      C3794   1.444       .  S
C3788      C3789   1.404       .  A
C3789      C3790   1.410       .  A
C3789      C3792   1.448       .  S
C3790      C3793   1.450       .  S
C3791      N3798   1.157       .  T
C3792      N3797   1.157       .  T
C3793      N3795   1.158       .  T
C3794      N3796   1.154       .  T
C3799      C3800   1.406   1_556  A
C3799      C3804   1.410       .  A
C3800      C3801   1.412       .  A
C3800      C3805   1.451       .  S
C3801      C3802   1.425   1_554  A
C3801      C3808   1.453       .  S
C3802      C3803   1.418       .  A
C3803      C3804   1.413       .  A
C3803      C3806   1.451       .  S
C3804      C3807   1.450       .  S
C3805      N3812   1.157       .  T
C3806      N3811   1.157       .  T
C3807      N3809   1.157       .  T
C3808      N3810   1.158       .  T
C3813      C3814   1.419       .  A
C3813      C3818   1.417       .  A
C3814      C3815   1.416       .  A
C3814      C3819   1.449       .  S
C3815      C3816   1.409       .  A
C3815      C3822   1.449       .  S
C3816      C3817   1.411       .  A
C3817      C3818   1.406       .  A
C3817      C3820   1.452       .  S
C3818      C3821   1.451       .  S
C3819      N3826   1.157       .  T
C3820      N3825   1.157       .  T
C3821      N3823   1.157       .  T
C3822      N3824   1.157       .  T
C3827      C3828   1.407       .  A
C3827      C3832   1.413       .  A
C3828      C3829   1.415       .  A
C3828      C3833   1.452       .  S
C3829      C3830   1.425       .  A
C3829      C3836   1.451   1_554  S
C3830      C3831   1.418       .  A
C3831      C3832   1.410       .  A
C3831      C3834   1.452       .  S
C3832      C3835   1.452       .  S
C3833      N3840   1.157   1_554  T
C3834      N3839   1.157       .  T
C3835      N3837   1.157       .  T
C3836      N3838   1.157       .  T
C3841      C3842   1.408       .  A
C3841      C3846   1.410       .  A
C3842      C3843   1.404       .  A
C3842      C3847   1.455       .  S
C3843      C3844   1.421       .  A
C3843      C3850   1.452       .  S
C3844      C3845   1.412       .  A
C3845      C3846   1.410       .  A
C3845      C3848   1.451       .  S
C3846      C3849   1.447       .  S
C3847      N3854   1.157       .  T
C3848      N3853   1.157       .  T
C3849      N3851   1.156       .  T
C3850      N3852   1.157       .  T
C3855      C3856   1.414       .  A
C3855      C3860   1.415       .  A
C3856      C3857   1.412       .  A
C3856      C3861   1.450       .  S
C3857      C3858   1.412       .  A
C3857      C3864   1.450       .  S
C3858      C3859   1.406       .  A
C3859      C3860   1.409       .  A
C3859      C3862   1.449       .  S
C3860      C3863   1.444       .  S
C3861      N3868   1.157       .  T
C3862      N3867   1.157       .  T
C3863      N3865   1.155       .  T
C3864      N3866   1.157       .  T
C3869      C3870   1.403       .  A
C3869      C3874   1.413       .  A
C3870      C3871   1.402       .  A
C3870      C3875   1.444       .  S
C3871      C3872   1.413       .  A
C3871      C3878   1.450       .  S
C3872      C3873   1.415       .  A
C3873      C3874   1.410       .  A
C3873      C3876   1.450       .  S
C3874      C3877   1.449       .  S
C3875      N3882   1.156       .  T
C3876      N3881   1.158       .  T
C3877      N3879   1.157       .  T
C3878      N3880   1.157       .  T
C3883      C3884   1.416       .  A
C3883      C3888   1.407       .  A
C3884      C3885   1.408       .  A
C3884      C3889   1.451       .  S
C3885      C3886   1.412       .  A
C3885      C3892   1.451       .  S
C3886      C3887   1.423       .  A
C3887      C3888   1.412       .  A
C3887      C3890   1.451       .  S
C3888      C3891   1.450       .  S
C3889      N3896   1.156       .  T
C3890      N3895   1.157       .  T
C3891      N3893   1.157       .  T
C3892      N3894   1.157       .  T
C3897      C3898   1.416       .  A
C3897      C3902   1.414       .  A
C3898      C3899   1.413       .  A
C3898      C3903   1.449       .  S
C3899      C3900   1.410       .  A
C3899      C3906   1.451       .  S
C3900      C3901   1.410       .  A
C3901      C3902   1.405       .  A
C3901      C3904   1.451       .  S
C3902      C3905   1.453       .  S
C3903      N3910   1.157       .  T
C3904      N3909   1.157       .  T
C3905      N3907   1.157       .  T
C3906      N3908   1.157       .  T
C3911      C3912   1.409       .  A
C3911      C3916   1.415       .  A
C3912      C3913   1.407       .  A
C3912      C3917   1.452       .  S
C3913      C3914   1.416       .  A
C3913      C3920   1.452       .  S
C3914      C3915   1.407       .  A
C3915      C3916   1.418       .  A
C3915      C3918   1.447       .  S
C3916      C3919   1.448       .  S
C3917      N3924   1.157       .  T
C3918      N3923   1.158       .  T
C3919      N3921   1.157       .  T
C3920      N3922   1.157       .  T
C3925      C3926   1.425       .  A
C3925      C3930   1.418       .  A
C3926      C3927   1.414   1_455  A
C3926      C3931   1.449   1_455  S
C3927      C3928   1.404   1_655  A
C3927      C3934   1.451       .  S
C3928      C3929   1.413       .  A
C3929      C3930   1.414       .  A
C3929      C3932   1.451       .  S
C3930      C3933   1.450       .  S
C3931      N3938   1.157       .  T
C3932      N3937   1.157       .  T
C3933      N3935   1.158       .  T
C3934      N3936   1.157       .  T
C3939      C3940   1.415       .  A
C3939      C3944   1.412       .  A
C3940      C3941   1.412       .  A
C3940      C3945   1.452       .  S
C3941      C3942   1.419       .  A
C3941      C3948   1.451       .  S
C3942      C3943   1.418       .  A
C3943      C3944   1.417       .  A
C3943      C3946   1.451       .  S
C3944      C3947   1.448       .  S
C3945      N3952   1.157       .  T
C3946      N3951   1.157       .  T
C3947      N3949   1.157       .  T
C3948      N3950   1.157       .  T
C3953      C3954   1.421   1_455  A
C3953      C3958   1.434       .  A
C3954      C3955   1.434       .  A
C3954      C3959   1.447       .  S
C3955      C3956   1.419   1_655  A
C3955      C3962   1.447       .  S
C3956      C3957   1.404       .  A
C3957      C3958   1.407       .  A
C3957      C3960   1.459       .  S
C3958      C3961   1.446       .  S
C3959      N3966   1.157       .  T
C3960      N3965   1.157       .  T
C3961      N3963   1.154       .  T
C3962      N3964   1.157       .  T
C3967      C3968   1.402       .  A
C3967      C3972   1.413   1_655  A
C3968      C3969   1.404       .  A
C3968      C3973   1.450       .  S
C3969      C3970   1.423   1_655  A
C3969      C3976   1.450       .  S
C3970      C3971   1.412       .  A
C3971      C3972   1.412       .  A
C3971      C3974   1.447       .  S
C3972      C3975   1.446       .  S
C3973      N3980   1.157       .  T
C3974      N3979   1.157       .  T
C3975      N3977   1.156       .  T
C3976      N3978   1.157       .  T
C3981      C3982   1.418       .  A
C3981      C3986   1.423   1_455  A
C3982      C3983   1.419       .  A
C3982      C3987   1.447       .  S
C3983      C3984   1.411       .  A
C3983      C3990   1.450       .  S
C3984      C3985   1.409   1_455  A
C3985      C3986   1.410       .  A
C3985      C3988   1.453       .  S
C3986      C3989   1.452       .  S
C3987      N3994   1.157       .  T
C3988      N3993   1.158       .  T
C3989      N3991   1.157       .  T
C3990      N3992   1.157       .  T
C3995      C3996   1.409       .  A
C3995      C4000   1.413       .  A
C3996      C3997   1.417       .  A
C3996      C4001   1.452       .  S
C3997      C3998   1.428       .  A
C3997      C4004   1.452       .  S
C3998      C3999   1.415       .  A
C3999      C4000   1.410       .  A
C3999      C4002   1.451       .  S
C4000      C4003   1.450       .  S
C4001      N4008   1.157       .  T
C4002      N4007   1.157       .  T
C4003      N4005   1.157       .  T
C4004      N4006   1.158       .  T
C4009      C4010   1.409   1_655  A
C4009      C4014   1.413       .  A
C4010      C4011   1.412       .  A
C4010      C4015   1.451       .  S
C4011      C4012   1.416   1_455  A
C4011      C4018   1.450       .  S
C4012      C4013   1.408       .  A
C4013      C4014   1.411       .  A
C4013      C4016   1.451       .  S
C4014      C4017   1.446       .  S
C4015      N4022   1.157       .  T
C4016      N4021   1.157       .  T
C4017      N4019   1.156       .  T
C4018      N4020   1.157       .  T
C4023      C4024   1.403       .  A
C4023      C4028   1.413       .  A
C4024      C4025   1.409       .  A
C4024      C4029   1.448       .  S
C4025      C4026   1.424       .  A
C4025      C4032   1.449       .  S
C4026      C4027   1.413       .  A
C4027      C4028   1.403       .  A
C4027      C4030   1.449       .  S
C4028      C4031   1.444       .  S
C4029      N4036   1.157       .  T
C4030      N4035   1.157       .  T
C4031      N4033   1.154       .  T
C4032      N4034   1.157       .  T
C4037      C4038   1.401       .  A
C4037      C4042   1.402       .  A
C4038      C4039   1.407       .  A
C4038      C4043   1.448       .  S
C4039      C4040   1.424       .  A
C4039      C4046   1.449       .  S
C4040      C4041   1.417       .  A
C4041      C4042   1.404       .  A
C4041      C4044   1.446       .  S
C4042      C4045   1.445       .  S
C4043      N4050   1.157       .  T
C4044      N4049   1.156       .  T
C4045      N4047   1.157       .  T
C4046      N4048   1.157       .  T
C4051      C4052   1.415       .  A
C4051      C4056   1.408       .  A
C4052      C4053   1.421       .  A
C4052      C4057   1.450       .  S
C4053      C4054   1.420       .  A
C4053      C4060   1.450       .  S
C4054      C4055   1.431       .  A
C4055      C4056   1.414       .  A
C4055      C4058   1.452       .  S
C4056      C4059   1.454       .  S
C4057      N4064   1.157       .  T
C4058      N4063   1.158       .  T
C4059      N4061   1.157       .  T
C4060      N4062   1.157       .  T
C4065      C4066   1.417       .  A
C4065      C4070   1.413       .  A
C4066      C4067   1.409       .  A
C4066      C4071   1.450       .  S
C4067      C4068   1.413       .  A
C4067      C4074   1.452       .  S
C4068      C4069   1.420       .  A
C4069      C4070   1.419       .  A
C4069      C4072   1.451       .  S
C4070      C4073   1.446       .  S
C4071      N4078   1.157       .  T
C4072      N4077   1.157       .  T
C4073      N4075   1.156       .  T
C4074      N4076   1.157       .  T
C4079      C4080   1.413       .  A
C4079      C4084   1.413       .  A
C4080      C4081   1.423       .  A
C4080      C4085   1.448       .  S
C4081      C4082   1.417       .  A
C4081      C4088   1.448       .  S
C4082      C4083   1.418       .  A
C4083      C4084   1.417       .  A
C4083      C4086   1.450       .  S
C4084      C4087   1.452       .  S
C4085      N4092   1.157       .  T
C4086      N4091   1.157       .  T
C4087      N4089   1.157       .  T
C4088      N4090   1.157       .  T
C4093      C4094   1.409       .  A
C4093      C4098   1.421       .  A
C4094      C4095   1.404       .  A
C4094      C4099   1.452       .  S
C4095      C4096   1.419       .  A
C4095      C4102   1.453       .  S
C4096      C4097   1.405       .  A
C4097      C4098   1.411       .  A
C4097      C4100   1.450       .  S
C4098      C4101   1.449       .  S
C4099      N4106   1.157       .  T
C4100      N4105   1.157       .  T
C4101      N4103   1.157       .  T
C4102      N4104   1.157       .  T
C4107      C4108   1.415       .  A
C4107      C4112   1.416       .  A
C4108      C4109   1.407       .  A
C4108      C4113   1.451       .  S
C4109      C4110   1.411       .  A
C4109      C4116   1.450       .  S
C4110      C4111   1.412       .  A
C4111      C4112   1.406       .  A
C4111      C4114   1.453       .  S
C4112      C4115   1.449       .  S
C4113      N4120   1.157       .  T
C4114      N4119   1.157       .  T
C4115      N4117   1.157       .  T
C4116      N4118   1.157       .  T
C4121      C4122   1.419       .  A
C4121      C4126   1.412       .  A
C4122      C4123   1.412       .  A
C4122      C4127   1.453       .  S
C4123      C4124   1.410       .  A
C4123      C4130   1.452       .  S
C4124      C4125   1.415       .  A
C4125      C4126   1.414       .  A
C4125      C4128   1.451       .  S
C4126      C4129   1.450       .  S
C4127      N4134   1.157       .  T
C4128      N4133   1.157       .  T
C4129      N4131   1.156       .  T
C4130      N4132   1.157       .  T
C4135      C4136   1.409       .  A
C4135      C4140   1.400       .  A
C4136      C4137   1.409       .  A
C4136      C4141   1.450       .  S
C4137      C4138   1.419       .  A
C4137      C4144   1.451       .  S
C4138      C4139   1.423       .  A
C4139      C4140   1.413       .  A
C4139      C4142   1.448       .  S
C4140      C4143   1.449       .  S
C4141      N4148   1.157       .  T
C4142      N4147   1.157       .  T
C4143      N4145   1.157       .  T
C4144      N4146   1.157       .  T
C4149      C4150   1.415       .  A
C4149      C4154   1.407       .  A
C4150      C4151   1.414       .  A
C4150      C4155   1.452       .  S
C4151      C4152   1.418       .  A
C4151      C4158   1.451       .  S
C4152      C4153   1.423       .  A
C4153      C4154   1.413       .  A
C4153      C4156   1.450       .  S
C4154      C4157   1.450       .  S
C4155      N4162   1.157       .  T
C4156      N4161   1.157       .  T
C4157      N4159   1.157       .  T
C4158      N4160   1.158       .  T
C4163      C4164   1.422       .  A
C4163      C4168   1.416       .  A
C4164      C4165   1.410       .  A
C4164      C4169   1.451       .  S
C4165      C4166   1.405       .  A
C4165      C4172   1.452       .  S
C4166      C4167   1.413       .  A
C4167      C4168   1.415       .  A
C4167      C4170   1.451       .  S
C4168      C4171   1.450       .  S
C4169      N4176   1.157       .  T
C4170      N4175   1.157       .  T
C4171      N4173   1.157       .  T
C4172      N4174   1.157       .  T
C4177      C4178   1.417       .  A
C4177      C4182   1.413       .  A
C4178      C4179   1.425       .  A
C4178      C4183   1.448       .  S
C4179      C4180   1.416       .  A
C4179      C4186   1.449       .  S
C4180      C4181   1.415       .  A
C4181      C4182   1.416       .  A
C4181      C4184   1.450       .  S
C4182      C4185   1.450       .  S
C4183      N4190   1.157       .  T
C4184      N4189   1.157       .  T
C4185      N4187   1.157       .  T
C4186      N4188   1.157       .  T
C4191      C4192   1.421       .  A
C4191      C4196   1.413       .  A
C4192      C4193   1.422       .  A
C4192      C4197   1.450       .  S
C4193      C4194   1.413       .  A
C4193      C4200   1.448       .  S
C4194      C4195   1.418       .  A
C4195      C4196   1.418       .  A
C4195      C4198   1.447   1_565  S
C4196      C4199   1.450   1_565  S
C4197      N4204   1.157       .  T
C4198      N4203   1.156       .  T
C4199      N4201   1.157       .  T
C4200      N4202   1.157       .  T
C4205      C4206   1.416   1_545  A
C4205      C4210   1.420       .  A
C4206      C4207   1.415       .  A
C4206      C4211   1.441       .  S
C4207      C4208   1.415   1_565  A
C4207      C4214   1.451       .  S
C4208      C4209   1.421       .  A
C4209      C4210   1.427       .  A
C4209      C4212   1.450       .  S
C4210      C4213   1.449       .  S
C4211      N4218   1.154       .  T
C4212      N4217   1.157       .  T
C4213      N4215   1.157       .  T
C4214      N4216   1.158       .  T
C4219      C4220   1.409   1_565  A
C4219      C4224   1.411       .  A
C4220      C4221   1.416       .  A
C4220      C4225   1.446       .  S
C4221      C4222   1.409   1_545  A
C4221      C4228   1.446       .  S
C4222      C4223   1.407       .  A
C4223      C4224   1.405       .  A
C4223      C4226   1.450       .  S
C4224      C4227   1.450       .  S
C4225      N4232   1.157       .  T
C4226      N4231   1.157       .  T
C4227      N4229   1.157       .  T
C4228      N4230   1.157       .  T
C4233      C4234   1.411       .  A
C4233      C4238   1.410       .  A
C4234      C4235   1.418       .  A
C4234      C4239   1.450       .  S
C4235      C4236   1.420       .  A
C4235      C4242   1.450       .  S
C4236      C4237   1.419       .  A
C4237      C4238   1.419       .  A
C4237      C4240   1.449       .  S
C4238      C4241   1.449       .  S
C4239      N4246   1.157       .  T
C4240      N4245   1.157       .  T
C4241      N4243   1.157       .  T
C4242      N4244   1.157       .  T
C4247      C4248   1.413       .  A
C4247      C4252   1.410       .  A
C4248      C4249   1.410       .  A
C4248      C4253   1.450       .  S
C4249      C4250   1.413       .  A
C4249      C4256   1.450       .  S
C4250      C4251   1.416       .  A
C4251      C4252   1.408       .  A
C4251      C4254   1.451   1_565  S
C4252      C4255   1.450   1_565  S
C4253      N4260   1.157       .  T
C4254      N4259   1.157       .  T
C4255      N4257   1.157       .  T
C4256      N4258   1.157       .  T
C4261      C4262   1.419       .  A
C4261      C4266   1.422       .  A
C4262      C4263   1.410   1_565  A
C4262      C4267   1.442       .  S
C4263      C4264   1.407   1_545  A
C4263      C4270   1.448       .  S
C4264      C4265   1.410       .  A
C4265      C4266   1.408       .  A
C4265      C4268   1.450       .  S
C4266      C4269   1.453       .  S
C4267      N4274   1.155       .  T
C4268      N4273   1.157       .  T
C4269      N4271   1.158   1_565  T
C4270      N4272   1.157       .  T
C4275      C4276   1.413       .  A
C4275      C4280   1.411       .  A
C4276      C4277   1.405       .  A
C4276      C4281   1.450       .  S
C4277      C4278   1.408       .  A
C4277      C4284   1.449       .  S
C4278      C4279   1.416       .  A
C4279      C4280   1.405       .  A
C4279      C4282   1.452       .  S
C4280      C4283   1.452       .  S
C4281      N4288   1.157       .  T
C4282      N4287   1.157       .  T
C4283      N4285   1.157       .  T
C4284      N4286   1.157       .  T
C4289      C4290   1.413       .  A
C4289      C4294   1.403       .  A
C4290      C4291   1.402       .  A
C4290      C4295   1.450       .  S
C4291      C4292   1.413       .  A
C4291      C4298   1.452       .  S
C4292      C4293   1.423       .  A
C4293      C4294   1.401       .  A
C4293      C4296   1.451       .  S
C4294      C4297   1.450       .  S
C4295      N4302   1.157       .  T
C4296      N4301   1.157       .  T
C4297      N4299   1.156       .  T
C4298      N4300   1.157       .  T
C4303      C4304   1.421       .  A
C4303      C4308   1.422       .  A
C4304      C4305   1.409       .  A
C4304      C4309   1.453       .  S
C4305      C4306   1.408       .  A
C4305      C4312   1.450       .  S
C4306      C4307   1.410       .  A
C4307      C4308   1.417       .  A
C4307      C4310   1.450       .  S
C4308      C4311   1.449       .  S
C4309      N4316   1.157       .  T
C4310      N4315   1.157       .  T
C4311      N4313   1.157       .  T
C4312      N4314   1.156       .  T
C4317      C4318   1.405       .  A
C4317      C4322   1.412       .  A
C4318      C4319   1.413       .  A
C4318      C4323   1.451       .  S
C4319      C4320   1.426       .  A
C4319      C4326   1.452       .  S
C4320      C4321   1.418       .  A
C4321      C4322   1.410       .  A
C4321      C4324   1.451       .  S
C4322      C4325   1.452       .  S
C4323      N4330   1.157       .  T
C4324      N4329   1.157       .  T
C4325      N4327   1.157       .  T
C4326      N4328   1.158       .  T
C4331      C4332   1.412       .  A
C4331      C4336   1.414       .  A
C4332      C4333   1.421       .  A
C4332      C4337   1.449       .  S
C4333      C4334   1.416       .  A
C4333      C4340   1.449       .  S
C4334      C4335   1.412       .  A
C4335      C4336   1.416       .  A
C4335      C4338   1.451       .  S
C4336      C4339   1.449       .  S
C4337      N4344   1.157       .  T
C4338      N4343   1.157       .  T
C4339      N4341   1.157       .  T
C4340      N4342   1.157       .  T
C4345      C4346   1.416       .  A
C4345      C4350   1.413       .  A
C4346      C4347   1.407       .  A
C4346      C4351   1.449       .  S
C4347      C4348   1.406       .  A
C4347      C4354   1.452       .  S
C4348      C4349   1.408       .  A
C4349      C4350   1.413       .  A
C4349      C4352   1.448       .  S
C4350      C4353   1.445       .  S
C4351      N4358   1.156       .  T
C4352      N4357   1.157       .  T
C4353      N4355   1.155       .  T
C4354      N4356   1.157       .  T
C4359      C4360   1.398       .  A
C4359      C4364   1.408       .  A
C4360      C4361   1.403       .  A
C4360      C4365   1.449       .  S
C4361      C4362   1.420       .  A
C4361      C4368   1.448       .  S
C4362      C4363   1.412       .  A
C4363      C4364   1.404       .  A
C4363      C4366   1.451       .  S
C4364      C4367   1.446       .  S
C4365      N4372   1.157       .  T
C4366      N4371   1.158       .  T
C4367      N4369   1.155       .  T
C4368      N4370   1.157       .  T
C4373      C4374   1.416       .  A
C4373      C4378   1.415       .  A
C4374      C4375   1.412       .  A
C4374      C4379   1.452       .  S
C4375      C4376   1.423       .  A
C4375      C4382   1.453       .  S
C4376      C4377   1.416       .  A
C4377      C4378   1.410       .  A
C4377      C4380   1.451       .  S
C4378      C4381   1.451       .  S
C4379      N4386   1.158       .  T
C4380      N4385   1.157       .  T
C4381      N4383   1.157       .  T
C4382      N4384   1.158       .  T
C4387      C4388   1.417       .  A
C4387      C4392   1.416       .  A
C4388      C4389   1.413       .  A
C4388      C4393   1.450       .  S
C4389      C4390   1.409       .  A
C4389      C4396   1.451       .  S
C4390      C4391   1.413       .  A
C4391      C4392   1.418       .  A
C4391      C4394   1.449       .  S
C4392      C4395   1.449       .  S
C4393      N4400   1.157       .  T
C4394      N4399   1.157       .  T
C4395      N4397   1.157       .  T
C4396      N4398   1.157       .  T
C4401      C4402   1.415       .  A
C4401      C4406   1.423       .  A
C4402      C4403   1.419       .  A
C4402      C4407   1.448       .  S
C4403      C4404   1.413       .  A
C4403      C4410   1.448       .  S
C4404      C4405   1.411       .  A
C4405      C4406   1.417       .  A
C4405      C4408   1.451       .  S
C4406      C4409   1.451       .  S
C4407      N4414   1.158       .  T
C4408      N4413   1.157       .  T
C4409      N4411   1.158       .  T
C4410      N4412   1.157       .  T
C4415      C4416   1.412       .  A
C4415      C4420   1.412       .  A
C4416      C4417   1.412       .  A
C4416      C4421   1.452       .  S
C4417      C4418   1.415       .  A
C4417      C4424   1.452       .  S
C4418      C4419   1.414       .  A
C4419      C4420   1.416       .  A
C4419      C4422   1.449       .  S
C4420      C4423   1.450       .  S
C4421      N4428   1.157       .  T
C4422      N4427   1.157       .  T
C4423      N4425   1.157       .  T
C4424      N4426   1.157       .  T
C4429      C4430   1.414       .  A
C4429      C4434   1.412       .  A
C4430      C4431   1.422       .  A
C4430      C4435   1.449       .  S
C4431      C4432   1.416       .  A
C4431      C4438   1.450       .  S
C4432      C4433   1.416       .  A
C4433      C4434   1.417       .  A
C4433      C4436   1.448   1_545  S
C4434      C4437   1.451   1_545  S
C4435      N4442   1.157       .  T
C4436      N4441   1.157       .  T
C4437      N4439   1.157       .  T
C4438      N4440   1.157       .  T
C4443      C4444   1.417       .  A
C4443      C4448   1.410       .  A
C4444      C4445   1.426       .  A
C4444      C4449   1.447       .  S
C4445      C4446   1.414       .  A
C4445      C4452   1.448       .  S
C4446      C4447   1.417       .  A
C4447      C4448   1.410       .  A
C4447      C4450   1.450       .  S
C4448      C4451   1.451       .  S
C4449      N4456   1.157       .  T
C4450      N4455   1.157       .  T
C4451      N4453   1.157       .  T
C4452      N4454   1.157       .  T
C4457      C4458   1.412       .  A
C4457      C4462   1.419       .  A
C4458      C4459   1.419       .  A
C4458      C4463   1.449       .  S
C4459      C4460   1.420       .  A
C4459      C4466   1.449       .  S
C4460      C4461   1.414   1_545  A
C4461      C4462   1.416   1_565  A
C4461      C4464   1.450       .  S
C4462      C4465   1.450   1_545  S
C4463      N4470   1.157       .  T
C4464      N4469   1.157       .  T
C4465      N4467   1.157       .  T
C4466      N4468   1.157       .  T
C4471      C4472   1.398       .  A
C4471      C4476   1.405       .  A
C4472      C4473   1.410       .  A
C4472      C4477   1.450       .  S
C4473      C4474   1.438   1_565  A
C4473      C4480   1.451       .  S
C4474      C4475   1.426       .  A
C4475      C4476   1.412   1_545  A
C4475      C4478   1.448       .  S
C4476      C4479   1.450       .  S
C4477      N4484   1.157       .  T
C4478      N4483   1.157       .  T
C4479      N4481   1.157       .  T
C4480      N4482   1.158       .  T
C4485      C4486   1.418   1_545  A
C4485      C4490   1.416       .  A
C4486      C4487   1.414       .  A
C4486      C4491   1.453       .  S
C4487      C4488   1.412   1_565  A
C4487      C4494   1.449       .  S
C4488      C4489   1.413       .  A
C4489      C4490   1.422       .  A
C4489      C4492   1.449       .  S
C4490      C4493   1.448       .  S
C4491      N4498   1.157       .  T
C4492      N4497   1.157       .  T
C4493      N4495   1.157       .  T
C4494      N4496   1.156       .  T
C4499      C4500   1.420       .  A
C4499      C4504   1.420       .  A
C4500      C4501   1.418       .  A
C4500      C4505   1.451       .  S
C4501      C4502   1.411       .  A
C4501      C4508   1.450       .  S
C4502      C4503   1.411       .  A
C4503      C4504   1.413       .  A
C4503      C4506   1.453       .  S
C4504      C4507   1.451       .  S
C4505      N4512   1.158       .  T
C4506      N4511   1.157       .  T
C4507      N4509   1.157       .  T
C4508      N4510   1.157       .  T
C4513      C4514   1.412       .  A
C4513      C4518   1.413       .  A
C4514      C4515   1.415       .  A
C4514      C4519   1.454       .  S
C4515      C4516   1.426       .  A
C4515      C4522   1.453       .  S
C4516      C4517   1.420       .  A
C4517      C4518   1.421       .  A
C4517      C4520   1.450       .  S
C4518      C4521   1.449       .  S
C4519      N4526   1.157       .  T
C4520      N4525   1.157       .  T
C4521      N4523   1.157       .  T
C4522      N4524   1.158       .  T
C4527      C4528   1.434       .  A
C4527      C4532   1.419       .  A
C4528      C4529   1.406       .  A
C4528      C4533   1.449       .  S
C4529      C4530   1.397       .  A
C4529      C4536   1.451       .  S
C4530      C4531   1.415       .  A
C4531      C4532   1.404       .  A
C4531      C4534   1.451       .  S
C4532      C4535   1.452       .  S
C4533      N4540   1.157       .  T
C4534      N4539   1.156       .  T
C4535      N4537   1.158       .  T
C4536      N4538   1.157       .  T
C4541      C4542   1.413       .  A
C4541      C4546   1.414       .  A
C4542      C4543   1.402       .  A
C4542      C4547   1.451       .  S
C4543      C4544   1.417       .  A
C4543      C4550   1.452       .  S
C4544      C4545   1.413       .  A
C4545      C4546   1.407       .  A
C4545      C4548   1.450       .  S
C4546      C4549   1.451       .  S
C4547      N4554   1.157       .  T
C4548      N4553   1.157       .  T
C4549      N4551   1.157       .  T
C4550      N4552   1.157       .  T
C4555      C4556   1.412       .  A
C4555      C4560   1.414       .  A
C4556      C4557   1.410       .  A
C4556      C4561   1.452       .  S
C4557      C4558   1.416       .  A
C4557      C4564   1.452       .  S
C4558      C4559   1.413       .  A
C4559      C4560   1.421       .  A
C4559      C4562   1.448       .  S
C4560      C4563   1.448       .  S
C4561      N4568   1.157       .  T
C4562      N4567   1.157       .  T
C4563      N4565   1.157       .  T
C4564      N4566   1.157       .  T
C4569      C4570   1.407       .  A
C4569      C4574   1.415       .  A
C4570      C4571   1.411       .  A
C4570      C4575   1.449       .  S
C4571      C4572   1.420       .  A
C4571      C4578   1.450       .  S
C4572      C4573   1.415       .  A
C4573      C4574   1.410       .  A
C4573      C4576   1.451       .  S
C4574      C4577   1.451       .  S
C4575      N4582   1.157       .  T
C4576      N4581   1.157       .  T
C4577      N4579   1.157       .  T
C4578      N4580   1.157       .  T
C4583      C4584   1.413       .  A
C4583      C4588   1.406       .  A
C4584      C4585   1.419       .  A
C4584      C4589   1.450       .  S
C4585      C4586   1.419       .  A
C4585      C4592   1.450       .  S
C4586      C4587   1.418       .  A
C4587      C4588   1.410       .  A
C4587      C4590   1.446       .  S
C4588      C4591   1.449       .  S
C4589      N4596   1.157       .  T
C4590      N4595   1.156       .  T
C4591      N4593   1.157       .  T
C4592      N4594   1.157       .  T
C4597      C4598   1.408       .  A
C4597      C4602   1.409       .  A
C4598      C4599   1.406       .  A
C4598      C4603   1.448       .  S
C4599      C4600   1.412       .  A
C4599      C4606   1.450       .  S
C4600      C4601   1.411       .  A
C4601      C4602   1.406       .  A
C4601      C4604   1.449       .  S
C4602      C4605   1.450       .  S
C4603      N4610   1.157       .  T
C4604      N4609   1.157       .  T
C4605      N4607   1.157       .  T
C4606      N4608   1.157       .  T
C4611      C4612   1.409       .  A
C4611      C4616   1.411       .  A
C4612      C4613   1.402       .  A
C4612      C4617   1.451       .  S
C4613      C4614   1.409       .  A
C4613      C4620   1.451       .  S
C4614      C4615   1.411       .  A
C4615      C4616   1.412       .  A
C4615      C4618   1.447       .  S
C4616      C4619   1.449       .  S
C4617      N4624   1.157       .  T
C4618      N4623   1.157       .  T
C4619      N4621   1.157       .  T
C4620      N4622   1.157       .  T
C4625      C4626   1.410       .  A
C4625      C4630   1.414       .  A
C4626      C4627   1.409       .  A
C4626      C4631   1.454       .  S
C4627      C4628   1.424       .  A
C4627      C4634   1.452       .  S
C4628      C4629   1.418       .  A
C4629      C4630   1.406       .  A
C4629      C4632   1.452       .  S
C4630      C4633   1.452       .  S
C4631      N4638   1.157       .  T
C4632      N4637   1.157       .  T
C4633      N4635   1.157       .  T
C4634      N4636   1.158       .  T
C4639      C4640   1.421       .  A
C4639      C4644   1.412       .  A
C4640      C4641   1.412       .  A
C4640      C4645   1.452       .  S
C4641      C4642   1.407       .  A
C4641      C4648   1.450       .  S
C4642      C4643   1.414       .  A
C4643      C4644   1.408       .  A
C4643      C4646   1.450       .  S
C4644      C4647   1.451       .  S
C4645      N4652   1.157       .  T
C4646      N4651   1.157       .  T
C4647      N4649   1.157       .  T
C4648      N4650   1.157       .  T
C4653      C4654   1.412       .  A
C4653      C4658   1.411       .  A
C4654      C4655   1.416       .  A
C4654      C4659   1.448       .  S
C4655      C4656   1.426       .  A
C4655      C4662   1.453       .  S
C4656      C4657   1.428       .  A
C4657      C4658   1.417       .  A
C4657      C4660   1.451       .  S
C4658      C4661   1.453       .  S
C4659      N4666   1.156       .  T
C4660      N4665   1.157       .  T
C4661      N4663   1.157       .  T
C4662      N4664   1.157       .  T
C4667      C4668   1.412       .  A
C4667      C4672   1.411       .  A
C4668      C4669   1.415       .  A
C4668      C4673   1.450       .  S
C4669      C4670   1.417       .  A
C4669      C4676   1.449       .  S
C4670      C4671   1.413       .  A
C4671      C4672   1.407       .  A
C4671      C4674   1.454       .  S
C4672      C4675   1.448       .  S
C4673      N4680   1.157       .  T
C4674      N4679   1.157       .  T
C4675      N4677   1.156       .  T
C4676      N4678   1.157       .  T
C4681      C4682   1.423       .  A
C4681      C4686   1.420       .  A
C4682      C4683   1.411       .  A
C4682      C4687   1.451       .  S
C4683      C4684   1.407       .  A
C4683      C4690   1.453       .  S
C4684      C4685   1.412       .  A
C4685      C4686   1.421       .  A
C4685      C4688   1.447       .  S
C4686      C4689   1.449       .  S
C4687      N4694   1.157       .  T
C4688      N4693   1.156       .  T
C4689      N4691   1.157       .  T
C4690      N4692   1.157       .  T
C4695      C4696   1.414       .  A
C4695      C4700   1.412       .  A
C4696      C4697   1.421       .  A
C4696      C4701   1.448       .  S
C4697      C4698   1.417       .  A
C4697      C4704   1.449       .  S
C4698      C4699   1.413       .  A
C4699      C4700   1.403       .  A
C4699      C4702   1.455       .  S
C4700      C4703   1.448       .  S
C4701      N4708   1.157       .  T
C4702      N4707   1.158       .  T
C4703      N4705   1.156       .  T
C4704      N4706   1.157   1_556  T
C4709      C4710   1.410   1_556  A
C4709      C4714   1.410       .  A
C4710      C4711   1.419       .  A
C4710      C4715   1.450       .  S
C4711      C4712   1.420   1_554  A
C4711      C4718   1.449       .  S
C4712      C4713   1.419       .  A
C4713      C4714   1.417       .  A
C4713      C4716   1.449       .  S
C4714      C4717   1.451       .  S
C4715      N4722   1.157       .  T
C4716      N4721   1.157       .  T
C4717      N4719   1.157       .  T
C4718      N4720   1.157       .  T
C4723      C4724   1.415       .  A
C4723      C4728   1.410       .  A
C4724      C4725   1.409       .  A
C4724      C4729   1.451       .  S
C4725      C4726   1.409       .  A
C4725      C4732   1.452       .  S
C4726      C4727   1.411       .  A
C4727      C4728   1.415       .  A
C4727      C4730   1.446       .  S
C4728      C4731   1.449       .  S
C4729      N4736   1.157       .  T
C4730      N4735   1.156       .  T
C4731      N4733   1.157       .  T
C4732      N4734   1.157       .  T
C4737      C4738   1.410       .  A
C4737      C4742   1.408       .  A
C4738      C4739   1.415       .  A
C4738      C4743   1.445       .  S
C4739      C4740   1.411       .  A
C4739      C4746   1.448       .  S
C4740      C4741   1.417       .  A
C4741      C4742   1.407       .  A
C4741      C4744   1.451       .  S
C4742      C4745   1.452       .  S
C4743      N4750   1.156       .  T
C4744      N4749   1.157       .  T
C4745      N4747   1.157       .  T
C4746      N4748   1.157       .  T
C4751      C4752   1.421       .  A
C4751      C4756   1.416       .  A
C4752      C4753   1.410       .  A
C4752      C4757   1.449       .  S
C4753      C4754   1.404       .  A
C4753      C4760   1.451       .  S
C4754      C4755   1.407       .  A
C4755      C4756   1.410       .  A
C4755      C4758   1.451       .  S
C4756      C4759   1.449       .  S
C4757      N4764   1.157       .  T
C4758      N4763   1.157       .  T
C4759      N4761   1.157       .  T
C4760      N4762   1.157       .  T
C4765      C4766   1.410       .  A
C4765      C4770   1.416       .  A
C4766      C4767   1.398       .  A
C4766      C4771   1.451       .  S
C4767      C4768   1.412       .  A
C4767      C4774   1.453       .  S
C4768      C4769   1.419       .  A
C4769      C4770   1.429       .  A
C4769      C4772   1.448       .  S
C4770      C4773   1.448       .  S
C4771      N4778   1.157       .  T
C4772      N4777   1.157       .  T
C4773      N4775   1.158       .  T
C4774      N4776   1.156       .  T
C4779      C4780   1.402       .  A
C4779      C4784   1.408       .  A
C4780      C4781   1.403       .  A
C4780      C4785   1.450       .  S
C4781      C4782   1.419       .  A
C4781      C4788   1.449       .  S
C4782      C4783   1.424       .  A
C4783      C4784   1.406       .  A
C4783      C4786   1.451       .  S
C4784      C4787   1.450       .  S
C4785      N4792   1.157       .  T
C4786      N4791   1.158       .  T
C4787      N4789   1.157       .  T
C4788      N4790   1.157       .  T
C4793      C4794   1.407       .  A
C4793      C4798   1.408       .  A
C4794      C4795   1.406       .  A
C4794      C4799   1.452       .  S
C4795      C4796   1.415       .  A
C4795      C4802   1.449       .  S
C4796      C4797   1.416       .  A
C4797      C4798   1.404       .  A
C4797      C4800   1.448       .  S
C4798      C4801   1.455       .  S
C4799      N4806   1.157       .  T
C4800      N4805   1.156       .  T
C4801      N4803   1.157       .  T
C4802      N4804   1.156       .  T
C4807      C4808   1.419       .  A
C4807      C4812   1.423       .  A
C4808      C4809   1.428       .  A
C4808      C4813   1.448       .  S
C4809      C4810   1.420       .  A
C4809      C4816   1.449       .  S
C4810      C4811   1.416       .  A
C4811      C4812   1.419       .  A
C4811      C4814   1.452       .  S
C4812      C4815   1.451       .  S
C4813      N4820   1.157       .  T
C4814      N4819   1.157       .  T
C4815      N4817   1.157       .  T
C4816      N4818   1.157       .  T
C4821      C4822   1.408       .  A
C4821      C4826   1.416       .  A
C4822      C4823   1.414       .  A
C4822      C4827   1.450       .  S
C4823      C4824   1.423       .  A
C4823      C4830   1.451       .  S
C4824      C4825   1.416       .  A
C4825      C4826   1.412       .  A
C4825      C4828   1.450       .  S
C4826      C4829   1.451       .  S
C4827      N4834   1.157       .  T
C4828      N4833   1.157       .  T
C4829      N4831   1.157       .  T
C4830      N4832   1.157       .  T
C4835      C4836   1.409       .  A
C4835      C4840   1.412       .  A
C4836      C4837   1.412       .  A
C4836      C4841   1.453       .  S
C4837      C4838   1.417       .  A
C4837      C4844   1.446       .  S
C4838      C4839   1.417       .  A
C4839      C4840   1.421       .  A
C4839      C4842   1.449       .  S
C4840      C4843   1.451       .  S
C4841      N4848   1.157       .  T
C4842      N4847   1.157       .  T
C4843      N4845   1.157       .  T
C4844      N4846   1.155       .  T
C4849      C4850   1.422       .  A
C4849      C4854   1.414       .  A
C4850      C4851   1.414       .  A
C4850      C4855   1.449       .  S
C4851      C4852   1.406       .  A
C4851      C4858   1.448       .  S
C4852      C4853   1.409       .  A
C4853      C4854   1.400       .  A
C4853      C4856   1.449       .  S
C4854      C4857   1.450       .  S
C4855      N4862   1.157       .  T
C4856      N4861   1.155       .  T
C4857      N4859   1.157       .  T
C4858      N4860   1.157       .  T
C4863      C4864   1.410       .  A
C4863      C4868   1.409       .  A
C4864      C4865   1.407       .  A
C4864      C4869   1.450       .  S
C4865      C4866   1.418       .  A
C4865      C4872   1.450       .  S
C4866      C4867   1.422       .  A
C4867      C4868   1.406       .  A
C4867      C4870   1.453       .  S
C4868      C4871   1.455       .  S
C4869      N4876   1.157       .  T
C4870      N4875   1.158       .  T
C4871      N4873   1.158       .  T
C4872      N4874   1.157       .  T
C4877      C4878   1.404       .  A
C4877      C4882   1.407       .  A
C4878      C4879   1.409       .  A
C4878      C4883   1.444       .  S
C4879      C4880   1.420       .  A
C4879      C4886   1.450       .  S
C4880      C4881   1.420       .  A
C4881      C4882   1.406       .  A
C4881      C4884   1.450       .  S
C4882      C4885   1.450       .  S
C4883      N4890   1.157       .  T
C4884      N4889   1.156   1_554  T
C4885      N4887   1.157       .  T
C4886      N4888   1.157       .  T
C4891      C4892   1.410       .  A
C4891      C4896   1.415       .  A
C4892      C4893   1.421       .  A
C4892      C4897   1.451       .  S
C4893      C4894   1.423       .  A
C4893      C4900   1.449       .  S
C4894      C4895   1.419       .  A
C4895      C4896   1.420       .  A
C4895      C4898   1.451       .  S
C4896      C4899   1.451       .  S
C4897      N4904   1.157       .  T
C4898      N4903   1.158       .  T
C4899      N4901   1.157       .  T
C4900      N4902   1.157       .  T
C4905      C4906   1.416       .  A
C4905      C4910   1.412       .  A
C4906      C4907   1.420       .  A
C4906      C4911   1.448       .  S
C4907      C4908   1.413       .  A
C4907      C4914   1.448       .  S
C4908      C4909   1.410       .  A
C4909      C4910   1.410       .  A
C4909      C4912   1.451   1_556  S
C4910      C4913   1.446   1_556  S
C4911      N4918   1.157       .  T
C4912      N4917   1.157       .  T
C4913      N4915   1.155       .  T
C4914      N4916   1.157       .  T
C4919      C4920   1.419       .  A
C4919      C4924   1.416       .  A
C4920      C4921   1.412   1_556  A
C4920      C4925   1.451   1_556  S
C4921      C4922   1.413   1_554  A
C4921      C4928   1.451       .  S
C4922      C4923   1.416       .  A
C4923      C4924   1.426       .  A
C4923      C4926   1.449       .  S
C4924      C4927   1.446       .  S
C4925      N4932   1.157       .  T
C4926      N4931   1.157       .  T
C4927      N4929   1.157       .  T
C4928      N4930   1.157       .  T
C4933      C4934   1.417       .  A
C4933      C4938   1.420       .  A
C4934      C4935   1.404       .  A
C4934      C4939   1.452       .  S
C4935      C4936   1.406       .  A
C4935      C4942   1.452       .  S
C4936      C4937   1.405   1_655  A
C4937      C4938   1.406   1_455  A
C4937      C4940   1.451       .  S
C4938      C4941   1.450   1_655  S
C4939      N4946   1.157       .  T
C4940      N4945   1.157       .  T
C4941      N4943   1.157       .  T
C4942      N4944   1.157       .  T
C4947      C4948   1.412       .  A
C4947      C4952   1.408   1_556  A
C4948      C4949   1.413       .  A
C4948      C4953   1.449       .  S
C4949      C4950   1.411       .  A
C4949      C4956   1.449       .  S
C4950      C4951   1.413       .  A
C4951      C4952   1.405   1_556  A
C4951      C4954   1.450   1_556  S
C4952      C4955   1.453       .  S
C4953      N4960   1.157       .  T
C4954      N4959   1.157       .  T
C4955      N4957   1.157       .  T
C4956      N4958   1.157       .  T
C4961      C4962   1.413   1_655  A
C4961      C4966   1.412       .  A
C4962      C4963   1.410       .  A
C4962      C4967   1.451   1_455  S
C4963      C4964   1.411       .  A
C4963      C4970   1.450   1_556  S
C4964      C4965   1.403       .  A
C4965      C4966   1.399   1_455  A
C4965      C4968   1.451       .  S
C4966      C4969   1.449       .  S
C4967      N4974   1.157   1_556  T
C4968      N4973   1.157       .  T
C4969      N4971   1.157       .  T
C4970      N4972   1.157       .  T
C4975      C4976   1.416       .  A
C4975      C4980   1.415       .  A
C4976      C4977   1.415       .  A
C4976      C4981   1.448       .  S
C4977      C4978   1.404       .  A
C4977      C4984   1.445   1_655  S
C4978      C4979   1.407       .  A
C4979      C4980   1.407       .  A
C4979      C4982   1.450       .  S
C4980      C4983   1.451       .  S
C4981      N4988   1.157       .  T
C4982      N4987   1.157       .  T
C4983      N4985   1.157       .  T
C4984      N4986   1.157       .  T
C4989      C4990   1.408       .  A
C4989      C4994   1.411       .  A
C4990      C4991   1.423       .  A
C4990      C4995   1.445       .  S
C4991      C4992   1.424       .  A
C4991      C4998   1.449   1_565  S
C4992      C4993   1.423       .  A
C4993      C4994   1.422       .  A
C4993      C4996   1.448       .  S
C4994      C4997   1.451       .  S
C4995      N5002   1.156   1_565  T
C4996      N5001   1.157       .  T
C4997      N4999   1.157       .  T
C4998      N5000   1.157       .  T
C5003      C5004   1.415   1_655  A
C5003      C5008   1.415   1_655  A
C5004      C5005   1.412       .  A
C5004      C5009   1.446       .  S
C5005      C5006   1.409       .  A
C5005      C5012   1.448       .  S
C5006      C5007   1.412       .  A
C5007      C5008   1.410       .  A
C5007      C5010   1.449       .  S
C5008      C5011   1.451   1_455  S
C5009      N5016   1.157       .  T
C5010      N5015   1.157       .  T
C5011      N5013   1.157       .  T
C5012      N5014   1.156       .  T
C5017      C5018   1.407       .  A
C5017      C5022   1.408       .  A
C5018      C5019   1.416       .  A
C5018      C5023   1.451       .  S
C5019      C5020   1.425       .  A
C5019      C5026   1.451       .  S
C5020      C5021   1.427       .  A
C5021      C5022   1.411       .  A
C5021      C5024   1.452       .  S
C5022      C5025   1.454       .  S
C5023      N5030   1.157       .  T
C5024      N5029   1.157       .  T
C5025      N5027   1.157       .  T
C5026      N5028   1.157   1_655  T
C5031      C5032   1.411       .  A
C5031      C5036   1.415       .  A
C5032      C5033   1.401       .  A
C5032      C5037   1.453       .  S
C5033      C5034   1.413       .  A
C5033      C5040   1.452       .  S
C5034      C5035   1.407       .  A
C5035      C5036   1.409       .  A
C5035      C5038   1.451       .  S
C5036      C5039   1.447       .  S
C5037      N5044   1.157       .  T
C5038      N5043   1.157       .  T
C5039      N5041   1.156       .  T
C5040      N5042   1.157       .  T
C5045      C5046   1.415       .  A
C5045      C5050   1.407       .  A
C5046      C5047   1.398       .  A
C5046      C5051   1.450       .  S
C5047      C5048   1.411       .  A
C5047      C5054   1.452       .  S
C5048      C5049   1.417       .  A
C5049      C5050   1.406       .  A
C5049      C5052   1.449       .  S
C5050      C5053   1.451   1_565  S
C5051      N5058   1.157       .  T
C5052      N5057   1.157   1_565  T
C5053      N5055   1.157       .  T
C5054      N5056   1.157       .  T
C5059      C5060   1.414       .  A
C5059      C5064   1.414   1_545  A
C5060      C5061   1.419       .  A
C5060      C5065   1.448       .  S
C5061      C5062   1.416   1_545  A
C5061      C5068   1.450       .  S
C5062      C5063   1.415       .  A
C5063      C5064   1.410       .  A
C5063      C5066   1.451       .  S
C5064      C5067   1.452       .  S
C5065      N5072   1.157       .  T
C5066      N5071   1.157       .  T
C5067      N5069   1.157       .  T
C5068      N5070   1.157       .  T
C5073      C5074   1.412       .  A
C5073      C5078   1.414       .  A
C5074      C5075   1.409       .  A
C5074      C5079   1.449       .  S
C5075      C5076   1.417       .  A
C5075      C5082   1.454       .  S
C5076      C5077   1.421       .  A
C5077      C5078   1.427       .  A
C5077      C5080   1.448       .  S
C5078      C5081   1.448       .  S
C5079      N5086   1.155       .  T
C5080      N5085   1.157   1_556  T
C5081      N5083   1.157       .  T
C5082      N5084   1.158       .  T
C5087      C5088   1.414       .  A
C5087      C5092   1.427       .  A
C5088      C5089   1.425       .  A
C5088      C5093   1.448       .  S
C5089      C5090   1.418       .  A
C5089      C5096   1.448   1_556  S
C5090      C5091   1.409       .  A
C5091      C5092   1.414       .  A
C5091      C5094   1.454       .  S
C5092      C5095   1.452       .  S
C5093      N5100   1.157   1_556  T
C5094      N5099   1.158       .  T
C5095      N5097   1.157       .  T
C5096      N5098   1.157       .  T
C5101      C5102   1.419       .  A
C5101      C5106   1.403       .  A
C5102      C5103   1.404       .  A
C5102      C5107   1.449       .  S
C5103      C5104   1.407       .  A
C5103      C5110   1.448       .  S
C5104      C5105   1.408       .  A
C5105      C5106   1.407       .  A
C5105      C5108   1.444       .  S
C5106      C5109   1.444       .  S
C5107      N5114   1.157       .  T
C5108      N5113   1.157       .  T
C5109      N5111   1.157       .  T
C5110      N5112   1.157       .  T
C5115      C5116   1.407       .  A
C5115      C5120   1.413       .  A
C5116      C5117   1.412       .  A
C5116      C5121   1.447       .  S
C5117      C5118   1.417       .  A
C5117      C5124   1.449       .  S
C5118      C5119   1.407       .  A
C5119      C5120   1.404       .  A
C5119      C5122   1.446       .  S
C5120      C5123   1.450       .  S
C5121      N5128   1.157       .  T
C5122      N5127   1.156       .  T
C5123      N5125   1.157       .  T
C5124      N5126   1.157       .  T
C5129      C5130   1.437       .  A
C5129      C5134   1.421       .  A
C5130      C5131   1.408       .  A
C5130      C5135   1.452       .  S
C5131      C5132   1.398       .  A
C5131      C5138   1.452       .  S
C5132      C5133   1.407       .  A
C5133      C5134   1.407       .  A
C5133      C5136   1.451       .  S
C5134      C5137   1.446       .  S
C5135      N5142   1.157       .  T
C5136      N5141   1.157       .  T
C5137      N5139   1.156       .  T
C5138      N5140   1.157       .  T
C5143      C5144   1.417       .  A
C5143      C5148   1.436       .  A
C5144      C5145   1.428       .  A
C5144      C5149   1.448       .  S
C5145      C5146   1.419       .  A
C5145      C5152   1.448       .  S
C5146      C5147   1.406       .  A
C5147      C5148   1.409       .  A
C5147      C5150   1.456       .  S
C5148      C5151   1.452       .  S
C5149      N5156   1.157       .  T
C5150      N5155   1.157       .  T
C5151      N5153   1.157       .  T
C5152      N5154   1.157       .  T
C5157      C5158   1.414       .  A
C5157      C5162   1.417       .  A
C5158      C5159   1.416       .  A
C5158      C5163   1.451       .  S
C5159      C5160   1.416       .  A
C5159      C5166   1.450       .  S
C5160      C5161   1.415       .  A
C5161      C5162   1.416       .  A
C5161      C5164   1.453       .  S
C5162      C5165   1.448       .  S
C5163      N5170   1.157       .  T
C5164      N5169   1.158       .  T
C5165      N5167   1.157       .  T
C5166      N5168   1.157       .  T
C5171      C5172   1.416       .  A
C5171      C5176   1.414       .  A
C5172      C5173   1.417       .  A
C5172      C5177   1.448       .  S
C5173      C5174   1.412       .  A
C5173      C5180   1.450       .  S
C5174      C5175   1.408       .  A
C5175      C5176   1.403       .  A
C5175      C5178   1.452       .  S
C5176      C5179   1.451       .  S
C5177      N5184   1.158       .  T
C5178      N5183   1.157       .  T
C5179      N5181   1.157       .  T
C5180      N5182   1.157       .  T
