geometry optimzed in LAMMPS
_audit_creation_date              2020-11-30 
_audit_creation_method            'lammps2cif' 
_symmetry_space_group_name_H-M    'P1' 
_symmetry_Int_Tables_number       1 
_symmetry_cell_setting            triclinic 
loop_ 
_symmetry_equiv_pos_as_xyz 
  x,y,z 
_cell_length_a                    59.18001339068396 
_cell_length_b                    59.183904299033635 
_cell_length_c                    59.1839412681853 
_cell_angle_alpha                 89.98469228059781 
_cell_angle_beta                  89.99259824975853 
_cell_angle_gamma                 90.0169390531862 
loop_ 
_atom_site_label 
_atom_site_type_symbol 
_atom_site_fract_x 
_atom_site_fract_y 
_atom_site_fract_z 
_atom_site_charge 
O1          O  0.61767490  0.46078681  0.56679042    -0.88960
C2          C  0.64487779  0.39787736  0.55188930     0.87070
Mg3        Mg  0.60249998  0.47658500  0.53599954     1.58150
O4          O  0.68796063  0.43732167  0.55825574    -0.88690
O5          O  0.64961489  0.46273178  0.58631611    -0.76020
C6          C  0.67973083  0.46220204  0.46233952     0.92120
O7          O  0.60023663  0.42015494  0.53305339    -0.75840
O8          O  0.65898934  0.46589702  0.45885886    -0.83340
Mg9        Mg  0.60843185  0.42492624  0.57071356     1.57960
C10         C  0.74288330  0.44193491  0.51456244     0.92040
O11         O  0.61475580  0.42058828  0.61095516    -0.81610
H12         H  0.70658034  0.45570102  0.57962089    -0.06950
C13         C  0.67302641  0.41931913  0.49765102     0.86980
O14         O  0.63563609  0.49721364  0.53132666    -0.76120
O15         O  0.64268038  0.41464316  0.56423460    -0.88880
O16         O  0.73359313  0.42646809  0.52671341    -0.81690
C17         C  0.69878041  0.38079936  0.57807906     0.92160
C18         C  0.63171772  0.41339073  0.62276687     0.92010
Mg19       Mg  0.69532491  0.46780844  0.51065255     1.57950
O20         O  0.69044712  0.47577091  0.47449104    -0.81610
O21         O  0.70403042  0.46826814  0.54787772    -0.75850
O22         O  0.68436768  0.39331333  0.58773153    -0.81690
O23         O  0.57101718  0.43613234  0.57352426    -0.83400
O24         O  0.62209498  0.49236108  0.48816069    -0.81720
C25         C  0.70006620  0.45355979  0.56267832     0.86440
O26         O  0.66016028  0.47442495  0.51532807    -0.88870
O27         O  0.68458257  0.43209223  0.50957298    -0.88970
O28         O  0.65367168  0.42469323  0.49046664    -0.76030
Mg29       Mg  0.66831419  0.42796961  0.58598091     1.57970
O30         O  0.70894301  0.38674657  0.56008887    -0.83400
H31         H  0.62759727  0.48888503  0.58279978    -0.07130
O32         O  0.61650805  0.44917913  0.51790089    -0.88670
H33         H  0.59966174  0.42651928  0.49932414    -0.06950
H34         H  0.66792407  0.50625386  0.52374643    -0.07130
C35         C  0.60527507  0.43181564  0.51587231     0.86420
C36         C  0.63126164  0.47141994  0.57881335     0.87010
C37         C  0.65527350  0.49306840  0.52348727     0.87050
H38         H  0.67916895  0.40241472  0.49439443    -0.07110
O39         O  0.66234341  0.39473832  0.53971783    -0.76130
Mg40       Mg  0.63756260  0.45869074  0.49008570     1.58000
H41         H  0.63121535  0.38578007  0.55096124    -0.07120
C42         C  0.55892014  0.44635944  0.55860326     0.92040
O43         O  0.58749619  0.48880521  0.50001944    -0.83360
C44         C  0.60141890  0.49160082  0.48369306     0.92100
O45         O  0.65172672  0.41645181  0.61655873    -0.83350
Mg46       Mg  0.69718895  0.41166371  0.53440120     1.58180
O47         O  0.56762731  0.45890106  0.54324664    -0.81680
O48         O  0.73165496  0.45787552  0.50541977    -0.83380
O49         O  0.89261850  0.46128961  0.45887447    -0.88960
C50         C  0.86552630  0.39825219  0.47363348     0.87070
Mg51       Mg  0.90784461  0.47699093  0.48968701     1.58150
O52         O  0.82235294  0.43760237  0.46748165    -0.88690
O53         O  0.86059794  0.46323564  0.43947561    -0.76020
C54         C  0.83066684  0.46215905  0.56336892     0.92120
O55         O  0.91021575  0.42056186  0.49242396    -0.75840
O56         O  0.85141599  0.46581994  0.56686098    -0.83340
Mg57       Mg  0.90190310  0.42546728  0.45480065     1.57960
C58         C  0.76749560  0.44195870  0.51122536     0.92040
O59         O  0.89544905  0.42127686  0.41456421    -0.81610
H60         H  0.80364089  0.45596096  0.44617965    -0.06950
C61         C  0.83742064  0.41940836  0.52796847     0.86980
O62         O  0.87467446  0.49751763  0.49449873    -0.76120
O63         O  0.86767535  0.41507118  0.46133977    -0.88880
O64         O  0.77679313  0.42654284  0.49903047    -0.81690
C65         C  0.81157679  0.38113688  0.44745005     0.92160
C66         C  0.87845627  0.41410472  0.40277682     0.92010
Mg67       Mg  0.81503115  0.46791078  0.51512566     1.57950
O68         O  0.81997289  0.47579067  0.55127300    -0.81610
O69         O  0.80623655  0.46847798  0.47793125    -0.75850
O70         O  0.82596056  0.39372247  0.43782614    -0.81690
O71         O  0.93930948  0.43679093  0.45191113    -0.83400
O72         O  0.88828079  0.49251840  0.53761213    -0.81720
C73         C  0.81019687  0.45380863  0.46310474     0.86440
O74         O  0.85019376  0.47459694  0.51041017    -0.88870
O75         O  0.82581068  0.43219980  0.51611773    -0.88970
O76         O  0.85679346  0.42479045  0.53510456    -0.76030
Mg77       Mg  0.84195722  0.42842759  0.43970085     1.57970
O78         O  0.80143588  0.38699038  0.46547885    -0.83400
H79         H  0.88256709  0.48943543  0.44302650    -0.07130
O80         O  0.89391445  0.44947699  0.50771606    -0.88670
H81         H  0.91085298  0.42678907  0.52617601    -0.06950
H82         H  0.84237887  0.50645272  0.50214405    -0.07130
C83         C  0.90518890  0.43213638  0.50965883     0.86420
C84         C  0.87895996  0.47193977  0.44694849     0.87010
C85         C  0.85504775  0.49329146  0.50233185     0.87050
H86         H  0.83131158  0.40247964  0.53119028    -0.07110
O87         O  0.84807781  0.39501639  0.48581118    -0.76130
Mg88       Mg  0.87284991  0.45881817  0.53558264     1.58000
H89         H  0.87921424  0.38618727  0.47450543    -0.07120
C90         C  0.95145033  0.44697814  0.46682670     0.92040
O91         O  0.92287697  0.48910992  0.52569443    -0.83360
C92         C  0.90896756  0.49180800  0.54204842     0.92100
O93         O  0.85846543  0.41711863  0.40904522    -0.83350
Mg94       Mg  0.81320152  0.41183199  0.49124421     1.58180
O95         O  0.94276896  0.45941987  0.48227485    -0.81680
O96         O  0.77871306  0.45789652  0.52039282    -0.83380
O97         O  0.90093996  0.53986142  0.69200194    -0.88960
C98         C  0.96189868  0.52591905  0.66256522     0.87070
Mg99       Mg  0.88048948  0.51504609  0.70466872     1.58150
O100        O  0.91796909  0.53155798  0.62387171    -0.88690
O101        O  0.89354981  0.55897451  0.66108657    -0.76020
C102        C  0.88214132  0.42661711  0.63930748     0.92120
O103        O  0.93712169  0.50152045  0.71139318    -0.75840
O104        O  0.88524493  0.43286186  0.65929163    -0.83340
Mg105      Mg  0.93669228  0.53873800  0.70266781     1.57960
C106        C  0.91498159  0.49082266  0.56634040     0.92040
O107        O  0.94471275  0.57487823  0.69778132    -0.81610
H108        H  0.89525509  0.55011593  0.60707919    -0.06950
C109        C  0.94016187  0.47063411  0.63867109     0.86980
O110        O  0.86350903  0.50972383  0.66986368    -0.76120
O111        O  0.94325973  0.53407295  0.66748533    -0.88880
O112        O  0.92755922  0.50617629  0.57499633    -0.81690
C113        C  0.96046970  0.56572245  0.60868452     0.92160
C114        C  0.93112384  0.58705046  0.68711998     0.92010
Mg115      Mg  0.89363030  0.47871369  0.61592454     1.57950
O116        O  0.88923100  0.43844704  0.62230007    -0.81610
O117        O  0.88888634  0.51638701  0.60772668    -0.75850
O118        O  0.96120494  0.56128274  0.62937241    -0.81690
O119        O  0.92683165  0.54398253  0.73901255    -0.83400
O120        O  0.86212463  0.46167962  0.69193910    -0.81720
C121        C  0.90056859  0.53357286  0.61269769     0.86440
O122        O  0.88338527  0.48519769  0.65018464    -0.88870
O123        O  0.92951324  0.48264089  0.62508234    -0.88970
O124        O  0.93149181  0.46314396  0.65704402    -0.76030
Mg125      Mg  0.92753151  0.55935284  0.64491964     1.57970
O126        O  0.95760551  0.54938543  0.59479172    -0.83400
H127        H  0.87126824  0.55505212  0.68659221    -0.07130
O128        O  0.90612355  0.49118750  0.69541153    -0.88670
H129        H  0.92449761  0.46980535  0.71401514    -0.06950
H130        H  0.85450636  0.49847055  0.63876194    -0.07130
C131        C  0.92237466  0.48674629  0.70748732     0.86420
C132        C  0.88817227  0.55178821  0.68044447     0.87010
C133        C  0.86662287  0.49754567  0.65240285     0.87050
H134        H  0.95762632  0.46665191  0.63499083    -0.07110
O135        O  0.96601611  0.51808439  0.64292261    -0.76130
Mg136      Mg  0.89675495  0.46346235  0.67580889     1.58000
H137        H  0.97510395  0.52566111  0.67518951    -0.07120
C138        C  0.91087978  0.53488907  0.75027478     0.92040
O139        O  0.85555422  0.48933463  0.71648889    -0.83360
C140        C  0.84961782  0.47131705  0.70636912     0.92100
O141        O  0.93477328  0.59055723  0.66637120    -0.83350
Mg142      Mg  0.94532914  0.51341579  0.60983422     1.58180
O143        O  0.89537458  0.52276171  0.74102462    -0.81680
O144        O  0.90478514  0.47590616  0.57848324    -0.83380
O145        O  0.90113554  0.53317792  0.83315771    -0.88960
C146        C  0.96210553  0.54720901  0.86256860     0.87070
Mg147      Mg  0.88062011  0.55797211  0.82057812     1.58150
O148        O  0.91821349  0.54136024  0.90130533    -0.88690
O149        O  0.89383622  0.51396342  0.86403523    -0.76020
C150        C  0.88220934  0.64621063  0.88612240     0.92120
O151        O  0.93723228  0.57164712  0.81376823    -0.75840
O152        O  0.88534389  0.64005284  0.86611697    -0.83340
Mg153      Mg  0.93687153  0.53441489  0.82242837     1.57960
C154        C  0.91520533  0.58207981  0.95894726     0.92040
O155        O  0.94498272  0.49828443  0.82720673    -0.81610
H156        H  0.89554190  0.52271196  0.91807616    -0.06950
C157        C  0.94031422  0.60234344  0.88661878     0.86980
O158        O  0.86367519  0.56318517  0.85541061    -0.76120
O159        O  0.94348253  0.53902118  0.85763054    -0.88880
O160        O  0.92778963  0.56672831  0.95028734    -0.81690
C161        C  0.96081739  0.50723011  0.91634308     0.92160
C162        C  0.93145518  0.48605480  0.83789231     0.92010
Mg163      Mg  0.89379928  0.59412804  0.90937524     1.57950
O164        O  0.88935701  0.63437018  0.90308868    -0.81610
O165        O  0.88911767  0.55642869  0.91751136    -0.75850
O166        O  0.96152828  0.51175232  0.89567186    -0.81690
O167        O  0.92693195  0.52921526  0.78608630    -0.83400
O168        O  0.86224888  0.61129732  0.83341421    -0.81720
C169        C  0.90082346  0.53927956  0.91248950     0.86440
O170        O  0.88355587  0.58769304  0.87511020    -0.88870
O171        O  0.92968714  0.59030217  0.90020285    -0.88970
O172        O  0.93162533  0.60984476  0.86826334    -0.76030
Mg173      Mg  0.92783574  0.51364603  0.88016317     1.57970
O174        O  0.95788895  0.52350824  0.93029671    -0.83400
H175        H  0.87150676  0.51788928  0.83857954    -0.07130
O176        O  0.90624608  0.58185956  0.82983741    -0.88670
H177        H  0.92453176  0.60333129  0.81123163    -0.06950
H178        H  0.85469798  0.57436377  0.88654573    -0.07130
C179        C  0.92246044  0.58637119  0.81773229     0.86420
C180        C  0.88841212  0.52118587  0.84470634     0.87010
C181        C  0.86679839  0.57533168  0.87289006     0.87050
H182        H  0.95777799  0.60634579  0.89028646    -0.07110
O183        O  0.96621336  0.55498236  0.88223935    -0.76130
Mg184      Mg  0.89688091  0.60951816  0.84952180     1.58000
H185        H  0.97530811  0.54754290  0.84993929    -0.07120
C186        C  0.91092113  0.53826355  0.77487965     0.92040
O187        O  0.85565127  0.58366352  0.80884518    -0.83360
C188        C  0.84972969  0.60166888  0.81898774     0.92100
O189        O  0.93516713  0.48253090  0.85862541    -0.83350
Mg190      Mg  0.94554576  0.55952532  0.91537521     1.58180
O191        O  0.89541967  0.55034329  0.78418411    -0.81680
O192        O  0.90495279  0.59693949  0.94679817    -0.83380
O193        O  0.68508578  0.93346969  0.51610216    -0.88960
C194        C  0.65522884  0.99423425  0.50223833     0.87070
Mg195      Mg  0.69783817  0.91312114  0.49126104     1.58150
O196        O  0.61681094  0.95002268  0.50787700    -0.88690
O197        O  0.65424651  0.92587312  0.53526564    -0.76020
C198        C  0.63227630  0.91413075  0.40302579     0.92120
O199        O  0.70417768  0.96980593  0.47777893    -0.75840
O200        O  0.65226419  0.91745513  0.40915996    -0.83340
Mg201      Mg  0.69555414  0.96927712  0.51502896     1.57960
C202        C  0.55922016  0.94670223  0.46716198     0.92040
O203        O  0.69069238  0.97717710  0.55122761    -0.81610
H204        H  0.60016768  0.92722609  0.52648571    -0.06950
C205        C  0.63135401  0.97231069  0.44687194     0.86980
O206        O  0.66313373  0.89590688  0.48600830    -0.76120
O207        O  0.66029511  0.97564396  0.51041804    -0.88880
O208        O  0.56783802  0.95934647  0.48247469    -0.81690
C209        C  0.60126664  0.99231213  0.54199767     0.92160
C210        C  0.68002173  0.96355828  0.56337730     0.92010
Mg211      Mg  0.60892732  0.92561966  0.45508130     1.57950
O212        O  0.61526200  0.92120208  0.41484330    -0.81610
O213        O  0.60080254  0.92084125  0.49276392    -0.75850
O214        O  0.62196329  0.99325116  0.53761078    -0.81690
O215        O  0.73201195  0.95961014  0.52020641    -0.83400
O216        O  0.68509757  0.89468697  0.43795233    -0.81720
C217        C  0.60573396  0.93256099  0.50992876     0.86440
O218        O  0.64327165  0.91565039  0.46152187    -0.88870
O219        O  0.61788527  0.96156673  0.45893692    -0.88970
O220        O  0.64977202  0.96378147  0.43934817    -0.76030
Mg221      Mg  0.63782018  0.95972750  0.53566738     1.57970
O222        O  0.58743177  0.98941809  0.52562150    -0.83400
H223        H  0.67987147  0.90375246  0.53128566    -0.07130
O224        O  0.68837198  0.93872066  0.46740816    -0.88670
H225        H  0.70679556  0.95729239  0.44602567    -0.06950
H226        H  0.63206538  0.88669110  0.47482353    -0.07130
C227        C  0.70032429  0.95507467  0.46297730     0.86420
C228        C  0.67362037  0.92061944  0.52803797     0.87010
C229        C  0.64562519  0.89890163  0.47386778     0.87050
H230        H  0.62752544  0.98973808  0.44286729    -0.07110
O231        O  0.63555599  0.99818268  0.49438464    -0.76130
Mg232      Mg  0.66876592  0.92918497  0.43970836     1.58000
H233        H  0.66775004  0.00754304  0.50196851    -0.07120
C234        C  0.74333273  0.94371625  0.51109389     0.92040
O235        O  0.70976790  0.88826435  0.46553334    -0.83360
C236        C  0.69961313  0.88226154  0.44755777     0.92100
O237        O  0.65925498  0.96715925  0.56683847    -0.83350
Mg238      Mg  0.60258278  0.97728545  0.48970303     1.58180
O239        O  0.73412581  0.92819766  0.49895429    -0.81680
O240        O  0.57139806  0.93650122  0.45228907    -0.83380
O241        O  0.82617992  0.93365423  0.50938625    -0.88960
C242        C  0.85607438  0.99438645  0.52337321     0.87070
Mg243      Mg  0.81350652  0.91322245  0.53422618     1.58150
O244        O  0.89441304  0.95017277  0.51747798    -0.88690
O245        O  0.85693051  0.92616519  0.49005818    -0.76020
C246        C  0.87921528  0.91403919  0.62232198     0.92120
O247        O  0.80712328  0.96985931  0.54782750    -0.75840
O248        O  0.85922008  0.91744858  0.61626493    -0.83340
Mg249      Mg  0.81568160  0.96944432  0.51056192     1.57960
C250        C  0.95213829  0.94660172  0.55801779     0.92040
O251        O  0.82045343  0.97749438  0.47436673    -0.81610
H252        H  0.91095371  0.92740262  0.49877008    -0.06950
C253        C  0.88013228  0.97233406  0.57854983     0.86980
O254        O  0.84820678  0.89602418  0.53935492    -0.76120
O255        O  0.85095656  0.97584036  0.51512469    -0.88880
O256        O  0.94352500  0.95929160  0.54272673    -0.81690
C257        C  0.90983588  0.99264454  0.48336237     0.92160
C258        C  0.83115751  0.96398260  0.46214017     0.92010
Mg259      Mg  0.90244467  0.92562370  0.57021073     1.57950
O260        O  0.89621644  0.92108128  0.61045745    -0.81610
O261        O  0.91043885  0.92094538  0.53248425    -0.75850
O262        O  0.88917838  0.99357670  0.48789987    -0.81690
O263        O  0.77922571  0.95970421  0.50542309    -0.83400
O264        O  0.82634658  0.89475433  0.58752073    -0.81720
C265        C  0.90545510  0.93270456  0.51535569     0.86440
O266        O  0.86809439  0.91571367  0.56385747    -0.88870
O267        O  0.89356142  0.96159516  0.56644841    -0.88970
O268        O  0.86171299  0.96381466  0.58609787    -0.76030
Mg269      Mg  0.87336205  0.96003358  0.48976579     1.57970
O270        O  0.92376878  0.98958607  0.49963164    -0.83400
H271        H  0.83132661  0.90400632  0.49406739    -0.07130
O272        O  0.82301693  0.93879238  0.55809764    -0.88670
H273        H  0.80460259  0.95725771  0.57956126    -0.06950
H274        H  0.87927940  0.88679050  0.55049307    -0.07130
C275        C  0.81104174  0.95510232  0.56259063     0.86420
C276        C  0.83759175  0.92086195  0.49735381     0.87010
C277        C  0.86572187  0.89899170  0.55148811     0.87050
H278        H  0.88399552  0.98975274  0.58256200    -0.07110
O279        O  0.87578897  0.99828997  0.53115705    -0.76130
Mg280      Mg  0.84267877  0.92923281  0.58575144     1.58000
H281        H  0.84356799  0.00769856  0.52375560    -0.07120
C282        C  0.76794654  0.94375592  0.51451604     0.92040
O283        O  0.80166968  0.88829578  0.55995610    -0.83360
C284        C  0.81184635  0.88230619  0.57792516     0.92100
O285        O  0.85190782  0.96767208  0.45868136    -0.83350
Mg286      Mg  0.90877346  0.97735254  0.53563864     1.58180
O287        O  0.77719455  0.92824110  0.52662767    -0.81680
O288        O  0.93996915  0.93643373  0.57292561    -0.83380
O289        O  0.50850345  0.71598702  0.90997576    -0.88960
C290        C  0.49467324  0.68623329  0.97077695     0.87070
Mg291      Mg  0.48362458  0.72863090  0.88962183     1.58150
O292        O  0.50036580  0.64783976  0.92659983    -0.88690
O293        O  0.52776735  0.68522927  0.90240604    -0.76020
C294        C  0.39546997  0.66296256  0.89075120     0.92120
O295        O  0.47020169  0.73510362  0.94627889    -0.75840
O296        O  0.40154659  0.68296368  0.89410455    -0.83340
Mg297      Mg  0.50746837  0.72654244  0.94573898     1.57960
C298        C  0.45992117  0.59010700  0.92324745     0.92040
O299        O  0.54369759  0.72175465  0.95361207    -0.81610
H300        H  0.51901504  0.63123849  0.90382464    -0.06950
C301        C  0.43934478  0.66214595  0.94893934     0.86980
O302        O  0.47842007  0.69390252  0.87249636    -0.76120
O303        O  0.50288693  0.69130208  0.95219678    -0.88880
O304        O  0.47519677  0.59879976  0.93588714    -0.81690
C305        C  0.53456172  0.63242669  0.96888267     0.92160
C306        C  0.55585848  0.71104968  0.94003900     0.92010
Mg307      Mg  0.44757927  0.63972899  0.90225282     1.57950
O308        O  0.40732256  0.64597290  0.89782701    -0.81610
O309        O  0.48528400  0.63172456  0.89746549    -0.75850
O310        O  0.53007654  0.65309075  0.96983810    -0.81690
O311        O  0.51260480  0.76296384  0.93593564    -0.83400
O312        O  0.43031922  0.71575672  0.87126397    -0.81720
C313        C  0.50244316  0.63674726  0.90915869     0.86440
O314        O  0.45393307  0.67405896  0.89227214    -0.88870
O315        O  0.45142744  0.64870856  0.93819053    -0.88970
O316        O  0.43178452  0.68055164  0.94041369    -0.76030
Mg317      Mg  0.52815089  0.66885987  0.93629400     1.57970
O318        O  0.51824835  0.61851605  0.96598401    -0.83400
H319        H  0.52372611  0.71084361  0.88027214    -0.07130
O320        O  0.45980093  0.71917267  0.91527100    -0.88670
H321        H  0.43841588  0.73760310  0.93381283    -0.06950
H322        H  0.46723542  0.66282277  0.86333736    -0.07130
C323        C  0.45537680  0.73116300  0.93159056     0.86420
C324        C  0.52048584  0.70457585  0.89713697     0.87010
C325        C  0.46627567  0.67639862  0.87551933     0.87050
H326        H  0.43536051  0.65830219  0.96637148    -0.07110
O327        O  0.48684673  0.66654520  0.97473959    -0.76130
Mg328      Mg  0.43209929  0.69951562  0.90579350     1.58000
H329        H  0.49435023  0.69876618  0.98406616    -0.07120
C330        C  0.50344453  0.77422196  0.92002053     0.92040
O331        O  0.45787900  0.74044012  0.86475466    -0.83360
C332        C  0.43992312  0.73023083  0.85878224     0.92100
O333        O  0.55931717  0.69029819  0.94371465    -0.83350
Mg334      Mg  0.48227010  0.63353736  0.95387239     1.58180
O335        O  0.49127314  0.76495808  0.90456445    -0.81680
O336        O  0.44491762  0.60219708  0.91313264    -0.83380
O337        O  0.50186247  0.85705514  0.90974558    -0.88960
C338        C  0.51579171  0.88685218  0.97047044     0.87070
Mg339      Mg  0.52669732  0.84433412  0.88939883     1.58150
O340        O  0.51020667  0.92524670  0.92624817    -0.88690
O341        O  0.48271455  0.88787286  0.90210442    -0.76020
C342        C  0.61494714  0.90986070  0.89031332     0.92120
O343        O  0.54016212  0.83792642  0.94604526    -0.75840
O344        O  0.60883381  0.88986603  0.89364490    -0.83340
Mg345      Mg  0.50291366  0.84656997  0.94553274     1.57960
C346        C  0.55087667  0.98286880  0.92295753     0.92040
O347        O  0.46670831  0.85147388  0.95343015    -0.81610
H348        H  0.49156970  0.94192941  0.90351714    -0.06950
C349        C  0.57120004  0.91076642  0.94856085     0.86980
O350        O  0.53195094  0.87904818  0.87220796    -0.76120
O351        O  0.50758252  0.88179959  0.95189050    -0.88880
O352        O  0.53557038  0.97421558  0.93559007    -0.81690
C353        C  0.47609531  0.94078274  0.96843790     0.92160
C354        C  0.45456968  0.86215236  0.93981412     0.92010
Mg355      Mg  0.56296176  0.93321108  0.90188238     1.57950
O356        O  0.60317176  0.92685857  0.89747830    -0.81610
O357        O  0.52529164  0.94135723  0.89710699    -0.75850
O358        O  0.48050758  0.92010606  0.96945515    -0.81690
O359        O  0.49769580  0.81014139  0.93584971    -0.83400
O360        O  0.57996097  0.85713014  0.87090085    -0.81720
C361        C  0.50813416  0.93636786  0.90882058     0.86440
O362        O  0.55648006  0.89888398  0.89192846    -0.88870
O363        O  0.55912996  0.92422563  0.93782248    -0.88970
O364        O  0.57870916  0.89234446  0.94003392    -0.76030
Mg365      Mg  0.48237279  0.90428624  0.93595795     1.57970
O366        O  0.49246100  0.95464066  0.96559817    -0.83400
H367        H  0.48665401  0.86219839  0.88003527    -0.07130
O368        O  0.55056323  0.85378762  0.91499088    -0.88670
H369        H  0.57193024  0.83534424  0.93354459    -0.06950
H370        H  0.54315285  0.91011522  0.86299898    -0.07130
C371        C  0.55498059  0.84181485  0.93133046     0.86420
C372        C  0.48991908  0.86848658  0.89688393     0.87010
C373        C  0.54411169  0.89654729  0.87519712     0.87050
H374        H  0.57522029  0.91460650  0.96598184    -0.07110
O375        O  0.52367557  0.90651542  0.97441576    -0.76130
Mg376      Mg  0.57828312  0.87338031  0.90542568     1.58000
H377        H  0.51606362  0.87432550  0.98377298    -0.07120
C378        C  0.50684401  0.79883145  0.91996915     0.92040
O379        O  0.55238813  0.83243850  0.86450842    -0.83360
C380        C  0.57032820  0.84264271  0.85846736     0.92100
O381        O  0.45114776  0.88292324  0.94340650    -0.83350
Mg382      Mg  0.52836191  0.93948973  0.95352107     1.58180
O383        O  0.51901081  0.80804413  0.90446762    -0.81680
O384        O  0.56578513  0.97073002  0.91276547    -0.83380
O385        O  0.70165837  0.86202408  0.65025289    -0.88960
C386        C  0.71657320  0.92492692  0.62296819     0.87070
Mg387      Mg  0.73244523  0.84628201  0.66549442     1.58150
O388        O  0.71028807  0.88545966  0.57991352    -0.88690
O389        O  0.68221087  0.86002203  0.61826938    -0.76020
C390        C  0.80616709  0.86068417  0.58823546     0.92120
O391        O  0.73534265  0.90270311  0.66769980    -0.75840
O392        O  0.80963237  0.85703791  0.60899119    -0.83340
Mg393      Mg  0.69769226  0.89788907  0.65943537     1.57960
C394        C  0.75408602  0.88090804  0.52500929     0.92040
O395        O  0.65745182  0.90222266  0.65301388    -0.81610
H396        H  0.68893922  0.86708650  0.56126775    -0.06950
C397        C  0.77085581  0.90354966  0.59487586     0.86980
O398        O  0.73719431  0.82565309  0.63237468    -0.76120
O399        O  0.70423118  0.90815088  0.62517680    -0.88880
O400        O  0.74190965  0.89636053  0.53427808    -0.81690
C401        C  0.69035931  0.94194632  0.56902698     0.92160
C402        C  0.64566145  0.90936592  0.63601065     0.92010
Mg403      Mg  0.75788934  0.85502717  0.57261516     1.57950
O404        O  0.79403481  0.84707792  0.57754738    -0.81610
O405        O  0.72067923  0.85453185  0.56385331    -0.75850
O406        O  0.68073567  0.92940100  0.58343915    -0.81690
O407        O  0.69480256  0.88668937  0.69686920    -0.83400
O408        O  0.78034960  0.83056009  0.64597052    -0.81720
C409        C  0.70587511  0.86922963  0.56780134     0.86440
O410        O  0.75317443  0.84843705  0.60780995    -0.88870
O411        O  0.75895920  0.89076216  0.58330877    -0.88970
O412        O  0.77799603  0.89819524  0.61425398    -0.76030
Mg413      Mg  0.68252874  0.89476925  0.59952518     1.57970
O414        O  0.70837380  0.93605115  0.55887736    -0.83400
H415        H  0.68571036  0.83388984  0.64032490    -0.07130
O416        O  0.75055107  0.87370221  0.65147200    -0.88670
H417        H  0.76908163  0.89639271  0.66833114    -0.06950
H418        H  0.74480102  0.81658095  0.60010939    -0.07130
C419        C  0.75254574  0.89107073  0.66269393     0.86420
C420        C  0.68968103  0.85136066  0.63665044     0.87010
C421        C  0.74503605  0.82978581  0.61273165     0.87050
H422        H  0.77411957  0.92045363  0.58872255    -0.07110
O423        O  0.72874708  0.92807471  0.60550253    -0.76130
Mg424      Mg  0.77838986  0.86421480  0.63041977     1.58000
H425        H  0.71749280  0.93702958  0.63661918    -0.07120
C426        C  0.70967744  0.87647015  0.70903221     0.92040
O427        O  0.76842510  0.83411168  0.68054940    -0.83360
C428        C  0.78477889  0.83132363  0.66665728     0.92100
O429        O  0.65190347  0.90625702  0.61602505    -0.83350
Mg430      Mg  0.73411521  0.91116018  0.57066932     1.58180
O431        O  0.72508486  0.86395605  0.70038032    -0.81680
O432        O  0.76318111  0.86495001  0.53625830    -0.83380
O433        O  0.80972094  0.86273680  0.37490585    -0.88960
C434        C  0.79461686  0.92545063  0.40246672     0.87070
Mg435      Mg  0.77896746  0.84689098  0.35973764     1.58150
O436        O  0.80119033  0.88584962  0.44538642    -0.88690
O437        O  0.82925852  0.86070052  0.40683319    -0.76020
C438        C  0.70536031  0.86066463  0.43724180     0.92120
O439        O  0.77577263  0.90331445  0.35774393    -0.75840
O440        O  0.70189053  0.85701445  0.41648902    -0.83340
Mg441      Mg  0.81347068  0.89865548  0.36583941     1.57960
C442        C  0.75751201  0.88094198  0.50039697     0.92040
O443        O  0.85370788  0.90308900  0.37210014    -0.81610
H444        H  0.82266257  0.86750199  0.46391377    -0.06950
C445        C  0.74050276  0.90370305  0.43062736     0.86980
O446        O  0.77444476  0.82613545  0.39283178    -0.76120
O447        O  0.80701482  0.90873818  0.40016243    -0.88880
O448        O  0.76960858  0.89647795  0.49114473    -0.81690
C449        C  0.82089598  0.94236285  0.45641116     0.92160
C450        C  0.86554064  0.91021001  0.38907738     0.92010
Mg451      Mg  0.75371690  0.85517850  0.45273778     1.57950
O452        O  0.71756685  0.84711073  0.44791331    -0.81610
O453        O  0.79095859  0.85482353  0.46139041    -0.75850
O454        O  0.83054306  0.92992958  0.44192677    -0.81690
O455        O  0.81625317  0.88766237  0.32835070    -0.83400
O456        O  0.73122951  0.83081341  0.37938926    -0.81720
C457        C  0.80569859  0.86959622  0.45743754     0.86440
O458        O  0.75838003  0.84871773  0.41751329    -0.88870
O459        O  0.75248120  0.89093522  0.44213016    -0.88970
O460        O  0.73332124  0.89836946  0.41126042    -0.76030
Mg461      Mg  0.82885057  0.89536538  0.42569750     1.57970
O462        O  0.80292052  0.93635154  0.46656656    -0.83400
H463        H  0.82582246  0.83464478  0.38469105    -0.07130
O464        O  0.76077466  0.87415417  0.37391312    -0.88670
H465        H  0.74206608  0.89681287  0.35721280    -0.06950
H466        H  0.76699764  0.81689855  0.42509474    -0.07130
C467        C  0.75864948  0.89155982  0.36276529     0.86420
C468        C  0.82178340  0.85207979  0.38843829     0.87010
C469        C  0.76663309  0.83014442  0.41251127     0.87050
H470        H  0.73718962  0.92057388  0.43683036    -0.07110
O471        O  0.78247914  0.92847073  0.41997611    -0.76130
Mg472      Mg  0.73304385  0.86443586  0.39500953     1.58000
H473        H  0.79361320  0.93760593  0.38886270    -0.07120
C474        C  0.80139262  0.87740150  0.31620507     0.92040
O475        O  0.74301733  0.83455980  0.34478125    -0.83360
C476        C  0.72672980  0.83162053  0.35872070     0.92100
O477        O  0.85935998  0.90705311  0.40908032    -0.83350
Mg478      Mg  0.77726637  0.91140359  0.45476619     1.58180
O479        O  0.78609865  0.86474198  0.32486904    -0.81680
O480        O  0.74847524  0.86496821  0.48912659    -0.83380
O481        O  0.68099445  0.67429046  0.31687838    -0.88960
C482        C  0.61817236  0.64679007  0.30216803     0.87070
Mg483      Mg  0.69665357  0.68952019  0.28602866     1.58150
O484        O  0.65782999  0.60388708  0.30846250    -0.88690
O485        O  0.68314377  0.64239348  0.33645931    -0.76020
C486        C  0.68228800  0.61219309  0.21239366     0.92120
O487        O  0.64021982  0.69153882  0.28320850    -0.75840
O488        O  0.68597148  0.63294469  0.20892733    -0.83340
Mg489      Mg  0.64509471  0.68338315  0.32086732     1.57960
C490        C  0.66235188  0.54889479  0.26473543     0.92040
O491        O  0.64074823  0.67703719  0.36111634    -0.81610
H492        H  0.67639770  0.58537838  0.32976197    -0.06950
C493        C  0.63953958  0.61870976  0.24790795     0.86980
O494        O  0.71738601  0.65646130  0.28126998    -0.76120
O495        O  0.63496992  0.64907690  0.31445592    -0.88880
O496        O  0.64693736  0.55816181  0.27695790    -0.81690
C497        C  0.60137601  0.59287122  0.32847927     0.92160
C498        C  0.63360758  0.66004338  0.37293418     0.92010
Mg499      Mg  0.68814153  0.59657719  0.26069975     1.57950
O500        O  0.69590818  0.60145448  0.22447227    -0.81610
O501        O  0.68878307  0.58792823  0.29794575    -0.75850
O502        O  0.61388884  0.60732910  0.33806263    -0.81690
O503        O  0.65614890  0.72088329  0.32361151    -0.83400
O504        O  0.71234809  0.67007290  0.23806775    -0.81720
C505        C  0.67414097  0.59185952  0.31281950     0.86440
O506        O  0.69469054  0.63180823  0.26530985    -0.88870
O507        O  0.65239229  0.60719982  0.25978688    -0.88970
O508        O  0.64483611  0.63807390  0.24067714    -0.76030
Mg509      Mg  0.64846335  0.62351980  0.33621116     1.57970
O510        O  0.60729997  0.58268505  0.31050152    -0.83400
H511        H  0.70917946  0.66455319  0.33285074    -0.07130
O512        O  0.66925902  0.67538284  0.26799074    -0.88670
H513        H  0.64648949  0.69213132  0.24946255    -0.06950
H514        H  0.72658427  0.62423491  0.27365459    -0.07130
C515        C  0.65185052  0.68654324  0.26600033     0.86420
C516        C  0.69172296  0.66078358  0.32890579     0.87010
C517        C  0.71332807  0.63680481  0.27342883     0.87050
H518        H  0.62263792  0.61251180  0.24472319    -0.07110
O519        O  0.61506325  0.62929735  0.29003611    -0.76130
Mg520      Mg  0.67876333  0.65436381  0.24014736     1.58000
H521        H  0.60601812  0.66039485  0.30125635    -0.07120
C522        C  0.66631997  0.73300601  0.30866002     0.92040
O523        O  0.70869902  0.70461985  0.25004009    -0.83360
C524        C  0.71147160  0.69076492  0.23366284     0.92100
O525        O  0.63687683  0.64004617  0.36680920    -0.83350
Mg526      Mg  0.63209464  0.59452475  0.28470660     1.58180
O527        O  0.67887022  0.72432375  0.29330616    -0.81680
O528        O  0.67825526  0.56015670  0.25554084    -0.83380
O529        O  0.68040499  0.39896775  0.20886972    -0.88960
C530        C  0.61769948  0.42651500  0.22388485     0.87070
Mg531      Mg  0.69605093  0.38363841  0.23966330     1.58150
O532        O  0.65741588  0.46936960  0.21753872    -0.88690
O533        O  0.68255710  0.43091058  0.18936193    -0.76020
C534        C  0.68206054  0.46080156  0.31353752     0.92120
O535        O  0.63964187  0.38164258  0.24256291    -0.75840
O536        O  0.68564588  0.44002327  0.31692145    -0.83340
Mg537      Mg  0.64448879  0.38993203  0.20492767     1.57960
C538        C  0.66228595  0.52427585  0.26133553     0.92040
O539        O  0.64015173  0.39636593  0.16471092    -0.81610
H540        H  0.67598599  0.48787530  0.19622377    -0.06950
C541        C  0.63922637  0.45452156  0.27813106     0.86980
O542        O  0.71686835  0.41664376  0.24446021    -0.76120
O543        O  0.63443546  0.42422767  0.21150760    -0.88880
O544        O  0.64680031  0.51506960  0.24914759    -0.81690
C545        C  0.60089494  0.48047670  0.19778372     0.92160
C546        C  0.63298021  0.41338104  0.15296143     0.92010
Mg547      Mg  0.68787330  0.47652087  0.26523781     1.57950
O548        O  0.69569297  0.47151923  0.30143984    -0.81610
O549        O  0.68843649  0.48524672  0.22800495    -0.75850
O550        O  0.61333854  0.46601779  0.18812141    -0.81690
O551        O  0.65549588  0.35247713  0.20198155    -0.83400
O552        O  0.71183627  0.40299452  0.28759111    -0.81720
C553        C  0.67375091  0.48136871  0.21316060     0.86440
O554        O  0.69426200  0.44130354  0.26051353    -0.88870
O555        O  0.65210295  0.46600257  0.26623944    -0.88970
O556        O  0.64443386  0.43510152  0.28526457    -0.76030
Mg557      Mg  0.64790106  0.44981559  0.18977833     1.57970
O558        O  0.60693005  0.49065553  0.21572912    -0.83400
H559        H  0.70856811  0.40871684  0.19284721    -0.07130
O560        O  0.66869611  0.39779523  0.25775562    -0.88670
H561        H  0.64596044  0.38099521  0.27629779    -0.06950
H562        H  0.72615991  0.44883550  0.25212379    -0.07130
C563        C  0.65129240  0.38662034  0.25976094     0.86420
C564        C  0.69112797  0.41249485  0.19684989     0.87010
C565        C  0.71287263  0.43629036  0.25234796     0.87050
H566        H  0.62236914  0.46079198  0.28139310    -0.07110
O567        O  0.61467558  0.44399280  0.23606258    -0.76130
Mg568      Mg  0.67830635  0.41873049  0.28564668     1.58000
H569        H  0.60552278  0.41292506  0.22483037    -0.07120
C570        C  0.66569581  0.34026022  0.21682159     0.92040
O571        O  0.70804776  0.36846110  0.27564356    -0.83360
C572        C  0.71086347  0.38231791  0.29201448     0.92100
O573        O  0.63617949  0.43336111  0.15918603    -0.83350
Mg574      Mg  0.63179162  0.47874471  0.24140092     1.58180
O575        O  0.67823738  0.34884562  0.23224303    -0.81680
O576        O  0.67815412  0.51295108  0.27049515    -0.83380
O577        O  0.83023257  0.67440000  0.70890561    -0.88960
C578        C  0.89284934  0.64660092  0.72384649     0.87070
Mg579      Mg  0.81452535  0.68960025  0.73972903     1.58150
O580        O  0.85302466  0.60387587  0.71730538    -0.88690
O581        O  0.82799593  0.64255203  0.68927307    -0.76020
C582        C  0.82812170  0.61199404  0.81330197     0.92120
O583        O  0.87093475  0.69137251  0.74279447    -0.75840
O584        O  0.82450567  0.63275586  0.81675550    -0.83340
Mg585      Mg  0.86619538  0.68333109  0.70509110     1.57960
C586        C  0.84809166  0.54879243  0.76095675     0.92040
O587        O  0.87070335  0.67706841  0.66484548    -0.81610
H588        H  0.83449644  0.58547009  0.69588331    -0.06950
C589        C  0.87110420  0.61843241  0.77800159     0.86980
O590        O  0.79362207  0.65659953  0.74430047    -0.76120
O591        O  0.87612000  0.64897829  0.71148374    -0.88880
O592        O  0.86359110  0.55803555  0.74880776    -0.81690
C593        C  0.90950528  0.59271559  0.69743694     0.92160
C594        C  0.87776718  0.66006734  0.65300723     0.92010
Mg595      Mg  0.82246838  0.59653146  0.76491180     1.57950
O596        O  0.81453683  0.60132445  0.80112091    -0.81610
O597        O  0.82197399  0.58797041  0.72764769    -0.75850
O598        O  0.89706294  0.60722791  0.68785639    -0.81690
O599        O  0.85533884  0.72086076  0.70234856    -0.83400
O600        O  0.79847392  0.67002812  0.78753465    -0.81720
C601        C  0.83669568  0.59190251  0.71284888     0.86440
O602        O  0.81610590  0.63179695  0.76032464    -0.88870
O603        O  0.85826437  0.60702011  0.76601556    -0.88970
O604        O  0.86586093  0.63779742  0.78525054    -0.76030
Mg605      Mg  0.86258155  0.62353874  0.68962426     1.57970
O606        O  0.90350941  0.58251229  0.71539324    -0.83400
H607        H  0.80206063  0.66482162  0.69281120    -0.07130
O608        O  0.84176411  0.67527947  0.75785429    -0.88670
H609        H  0.86453076  0.69188570  0.77651758    -0.06950
H610        H  0.78422554  0.62438596  0.75177118    -0.07130
C611        C  0.85921408  0.68636586  0.75994404     0.86420
C612        C  0.81948235  0.66096623  0.69681702     0.87010
C613        C  0.79754093  0.63689869  0.75210849     0.87050
H614        H  0.88795529  0.61215009  0.78126684    -0.07110
O615        O  0.89582397  0.62907319  0.73596672    -0.76130
Mg616      Mg  0.83200306  0.65421933  0.78561399     1.58000
H617        H  0.90505747  0.66015905  0.72483931    -0.07120
C618        C  0.84514985  0.73302161  0.71724208     0.92040
O619        O  0.80238772  0.70460986  0.77573019    -0.83360
C620        C  0.79943249  0.69069089  0.79203331     0.92100
O621        O  0.87437039  0.64007411  0.65909061    -0.83350
Mg622      Mg  0.87862780  0.59435476  0.74114579     1.58180
O623        O  0.83250326  0.72438485  0.73256011    -0.81680
O624        O  0.83216917  0.56007790  0.77006698    -0.83380
O625        O  0.83065951  0.39847913  0.81640035    -0.88960
C626        C  0.89317080  0.42643929  0.80123342     0.87070
Mg627      Mg  0.81481741  0.38328492  0.78567044     1.58150
O628        O  0.85330124  0.46907437  0.80799169    -0.88690
O629        O  0.82844607  0.43029972  0.83607644    -0.76020
C630        C  0.82801518  0.46098038  0.71209621     0.92120
O631        O  0.87124462  0.38166239  0.78227954    -0.75840
O632        O  0.82438102  0.44021992  0.70863338    -0.83340
Mg633      Mg  0.86664931  0.38961421  0.82001386     1.57960
C634        C  0.84811381  0.52417745  0.76439889     0.92040
O635        O  0.87123392  0.39579771  0.86024251    -0.81610
H636        H  0.83482204  0.48741522  0.82950664    -0.06950
C637        C  0.87114934  0.45456807  0.74722555     0.86980
O638        O  0.79385001  0.41624842  0.78122487    -0.76120
O639        O  0.87648255  0.42400589  0.81364628    -0.88880
O640        O  0.86367661  0.51496071  0.77647484    -0.81690
C641        C  0.90982416  0.48033811  0.82763630     0.92160
C642        C  0.87831309  0.41278450  0.87209094     0.92010
Mg643      Mg  0.82253557  0.47638651  0.76051798     1.57950
O644        O  0.81446812  0.47163065  0.72433210    -0.81610
O645        O  0.82217696  0.48490699  0.79779403    -0.75850
O646        O  0.89744543  0.46578044  0.83724545    -0.81690
O647        O  0.85591371  0.35203668  0.82270541    -0.83400
O648        O  0.79852893  0.40281225  0.73793970    -0.81720
C649        C  0.83696658  0.48100249  0.81252667     0.86440
O650        O  0.81622436  0.44109930  0.76509346    -0.88870
O651        O  0.85834574  0.46596632  0.75926041    -0.88970
O652        O  0.86587791  0.43521380  0.73996093    -0.76030
Mg653      Mg  0.86299451  0.44938131  0.83559958     1.57970
O654        O  0.90375150  0.49054379  0.80971014    -0.83400
H655        H  0.80254041  0.40796901  0.83263460    -0.07130
O656        O  0.84194565  0.39766287  0.76739592    -0.88670
H657        H  0.86466656  0.38115951  0.74859272    -0.06950
H658        H  0.78437501  0.44844514  0.77380818    -0.07130
C659        C  0.85941648  0.38663886  0.76520125     0.86420
C660        C  0.81993724  0.41187144  0.82855478     0.87010
C661        C  0.79770497  0.43595813  0.77339983     0.87050
H662        H  0.88799175  0.46086135  0.74391094    -0.07110
O663        O  0.89607559  0.44398881  0.78912565    -0.76130
Mg664      Mg  0.83203888  0.41872568  0.73971291     1.58000
H665        H  0.90540158  0.41291307  0.80018489    -0.07120
C666        C  0.84565682  0.33989975  0.80783675     0.92040
O667        O  0.80250590  0.36825079  0.74979520    -0.83360
C668        C  0.79949320  0.38213684  0.73348414     0.92100
O669        O  0.87491716  0.43278716  0.86604108    -0.83350
Mg670      Mg  0.87879412  0.47866717  0.78404799     1.58180
O671        O  0.83288112  0.34855195  0.79265062    -0.81680
O672        O  0.83216858  0.51286386  0.75535687    -0.83380
O673        O  0.64261562  0.73264746  0.83834847    -0.88960
C674        C  0.61541331  0.74754569  0.90127536     0.87070
Mg675      Mg  0.65781650  0.76340096  0.82247944     1.58150
O676        O  0.57233661  0.74113043  0.86184875    -0.88690
O677        O  0.61067862  0.71310025  0.83642977    -0.76020
C678        C  0.58055480  0.83700489  0.83680125     0.92120
O679        O  0.66001856  0.76645579  0.87892516    -0.75840
O680        O  0.60128682  0.84052413  0.83306282    -0.83340
Mg681      Mg  0.65185117  0.72877786  0.87421544     1.57960
C682        C  0.51745722  0.78476325  0.85721730     0.92040
O683        O  0.64552667  0.68854383  0.87861442    -0.81610
H684        H  0.55372113  0.71973580  0.84349915    -0.06950
C685        C  0.58733181  0.80173496  0.87974614     0.86980
O686        O  0.62469632  0.76804397  0.80183678    -0.76120
O687        O  0.61760381  0.73521671  0.88449801    -0.88880
O688        O  0.52675291  0.77264698  0.87269626    -0.81690
C689        C  0.56151084  0.72132326  0.91839185     0.92160
C690        C  0.62856290  0.67672527  0.88581926     0.92010
Mg691      Mg  0.56500056  0.78868018  0.83128453     1.57950
O692        O  0.56983791  0.82483387  0.82325327    -0.81610
O693        O  0.55630976  0.75145194  0.83087030    -0.75850
O694        O  0.57591916  0.71167352  0.90586794    -0.81690
O695        O  0.68928519  0.72599968  0.86303255    -0.83400
O696        O  0.63828124  0.81125149  0.80661605    -0.81720
C697        C  0.56024188  0.73668161  0.84561357     0.86440
O698        O  0.60017408  0.78404998  0.82462380    -0.88870
O699        O  0.57575490  0.78979817  0.86700574    -0.88970
O700        O  0.60665822  0.80896519  0.87431233    -0.76030
Mg701      Mg  0.59197745  0.71343502  0.87119634     1.57970
O702        O  0.55136015  0.73931776  0.91244883    -0.83400
H703        H  0.63269545  0.71661343  0.81026591    -0.07130
O704        O  0.64382260  0.78156881  0.84984491    -0.88670
H705        H  0.66063073  0.80017461  0.87250783    -0.06950
H706        H  0.59241209  0.77561726  0.79280053    -0.07130
C707        C  0.65502050  0.78361895  0.86722492     0.86420
C708        C  0.62903102  0.72060810  0.82773002     0.87010
C709        C  0.60506084  0.77588403  0.80598240     0.87050
H710        H  0.58122553  0.80498568  0.89666700    -0.07110
O711        O  0.59795522  0.75971509  0.90442826    -0.76130
Mg712      Mg  0.62276213  0.80934331  0.84030145     1.58000
H713        H  0.62907665  0.74846433  0.91336678    -0.07120
C714        C  0.70136900  0.74093416  0.85279604     0.92040
O715        O  0.67285913  0.79932540  0.81016225    -0.83360
C716        C  0.65897621  0.81567357  0.80734465     0.92100
O717        O  0.60855242  0.68288047  0.88270420    -0.83350
Mg718      Mg  0.56312960  0.76499797  0.88749307     1.58180
O719        O  0.69265452  0.75623456  0.84020407    -0.81680
O720        O  0.52867221  0.79388342  0.84124721    -0.83380
O721        O  0.36775336  0.84031470  0.83830613    -0.88960
C722        C  0.39497267  0.82560251  0.90125115     0.87070
Mg723      Mg  0.35252048  0.80950755  0.82260789     1.58150
O724        O  0.43801980  0.83179608  0.86175395    -0.88690
O725        O  0.39971873  0.85980091  0.83625059    -0.76020
C726        C  0.42965535  0.73583775  0.83713010     0.92120
O727        O  0.35033578  0.80669375  0.87905652    -0.75840
O728        O  0.40891058  0.73234149  0.83345611    -0.83340
Mg729      Mg  0.35854581  0.84434323  0.87416194     1.57960
C730        C  0.49285290  0.78809006  0.85723273     0.92040
O731        O  0.36495176  0.88459772  0.87837948    -0.81610
H732        H  0.45666375  0.85309752  0.84330902    -0.06950
C733        C  0.42301226  0.77125641  0.87994181     0.86980
O734        O  0.38561344  0.80475885  0.80194568    -0.76120
O735        O  0.39278850  0.83789319  0.88443754    -0.88880
O736        O  0.48358202  0.80028014  0.87266674    -0.81690
C737        C  0.44890496  0.85181269  0.91820718     0.92160
C738        C  0.38195335  0.89642343  0.88548034     0.92010
Mg739      Mg  0.44528772  0.78412430  0.83139751     1.57950
O740        O  0.44036304  0.74795460  0.82351664    -0.81610
O741        O  0.45404110  0.82133552  0.83082149    -0.75850
O742        O  0.43451032  0.86143880  0.90564952    -0.81690
O743        O  0.32109688  0.84709883  0.86299658    -0.83400
O744        O  0.37199246  0.76160725  0.80694876    -0.81720
C745        C  0.45012132  0.83616852  0.84549778     0.86440
O746        O  0.41012642  0.78879514  0.82477504    -0.88870
O747        O  0.43456920  0.78314794  0.86713267    -0.88970
O748        O  0.40366021  0.76404540  0.87458442    -0.76030
Mg749      Mg  0.41844253  0.85956801  0.87099768     1.57970
O750        O  0.45903195  0.83378519  0.91232996    -0.83400
H751        H  0.37766265  0.85622164  0.81013660    -0.07130
O752        O  0.36652713  0.79144795  0.85004754    -0.88670
H753        H  0.34970561  0.77294769  0.87280180    -0.06950
H754        H  0.41788099  0.79710967  0.79291253    -0.07130
C755        C  0.35532754  0.78947748  0.86743971     0.86420
C756        C  0.38134279  0.85229057  0.82761314     0.87010
C757        C  0.40523979  0.79690482  0.80610561     0.87050
H758        H  0.42915598  0.76804329  0.89685646    -0.07110
O759        O  0.41241224  0.81341008  0.90442617    -0.76130
Mg760      Mg  0.38752038  0.76359554  0.84059678     1.58000
H761        H  0.38131588  0.82473678  0.91335846    -0.07120
C762        C  0.30901415  0.83209432  0.85286837     0.92040
O763        O  0.33742750  0.77355786  0.81048667    -0.83360
C764        C  0.35130140  0.75719488  0.80773624     0.92100
O765        O  0.40194521  0.89020824  0.88236701    -0.83350
Mg766      Mg  0.44722502  0.80802102  0.88748947     1.58180
O767        O  0.31772470  0.81674442  0.84034532    -0.81680
O768        O  0.48161330  0.77889998  0.84132817    -0.83380
O769        O  0.30926538  0.71146335  0.65073960    -0.88960
C770        C  0.29451153  0.64877710  0.62300794     0.87070
Mg771      Mg  0.27836724  0.72703832  0.66590432     1.58150
O772        O  0.30096094  0.68855147  0.58021308    -0.88690
O773        O  0.32889757  0.71371730  0.61888055    -0.76020
C774        C  0.20486719  0.71294511  0.58834132     0.92120
O775        O  0.27554107  0.67062269  0.66781578    -0.75840
O776        O  0.20140190  0.71654557  0.60910402    -0.83340
Mg777      Mg  0.31321582  0.67554320  0.65974502     1.57960
C778        C  0.25735924  0.69326631  0.52503554     0.92040
O779        O  0.35348110  0.67127409  0.65349017    -0.81610
H780        H  0.32232651  0.70716750  0.56181133    -0.06950
C781        C  0.24033468  0.67019727  0.59475098     0.86980
O782        O  0.27370597  0.74784880  0.63286228    -0.76120
O783        O  0.30684327  0.66553565  0.62538512    -0.88880
O784        O  0.26955191  0.67781924  0.53430218    -0.81690
C785        C  0.32094900  0.63211789  0.56913337     0.92160
C786        C  0.36533625  0.66418484  0.63651135     0.92010
Mg787      Mg  0.25322370  0.71886915  0.57281432     1.57950
O788        O  0.21697649  0.72658873  0.57764963    -0.81610
O789        O  0.29049739  0.71953076  0.56426299    -0.75850
O790        O  0.33050678  0.64457778  0.58365057    -0.81690
O791        O  0.31590631  0.68648695  0.69727563    -0.83400
O792        O  0.23050064  0.74276769  0.64631573    -0.81720
C793        C  0.30536126  0.70489112  0.56823028     0.86440
O794        O  0.25778385  0.72526269  0.60808436    -0.88870
O795        O  0.25225058  0.68309621  0.58331966    -0.88970
O796        O  0.23310890  0.67539008  0.61414107    -0.76030
Mg797      Mg  0.32866086  0.67909916  0.59991367     1.57970
O798        O  0.30301648  0.63809082  0.55889330    -0.83400
H799        H  0.32526881  0.73967730  0.64110734    -0.07130
O800        O  0.26038603  0.69967155  0.65162199    -0.88670
H801        H  0.24179137  0.67688214  0.66829123    -0.06950
H802        H  0.26620457  0.75717189  0.60063980    -0.07130
C803        C  0.25835030  0.68225050  0.66276266     0.86420
C804        C  0.32132024  0.72223477  0.63728250     0.87010
C805        C  0.26591955  0.74387038  0.61316679     0.87050
H806        H  0.23713022  0.65333425  0.58846680    -0.07110
O807        O  0.28243204  0.64574789  0.60546038    -0.76130
Mg808      Mg  0.23258490  0.70924861  0.63054648     1.58000
H809        H  0.29351826  0.63658209  0.63657717    -0.07120
C810        C  0.30096939  0.69664711  0.70941240     0.92040
O811        O  0.24231587  0.73900025  0.68090304    -0.83360
C812        C  0.22600115  0.74181447  0.66697918     0.92100
O813        O  0.35921319  0.66744167  0.61650765    -0.83350
Mg814      Mg  0.27720840  0.66285954  0.57068880     1.58180
O815        O  0.28560373  0.70919522  0.70073565    -0.81680
O816        O  0.24814020  0.70912840  0.53632384    -0.83380
O817        O  0.20220885  0.71141877  0.37462284    -0.88960
C818        C  0.21698052  0.64874498  0.40242738     0.87070
Mg819      Mg  0.23307978  0.72705298  0.35945348     1.58150
O820        O  0.21045271  0.68851878  0.44519143    -0.88690
O821        O  0.18255321  0.71364962  0.40646650    -0.76020
C822        C  0.30650069  0.71309962  0.43712132     0.92120
O823        O  0.23599662  0.67062652  0.35760616    -0.75840
O824        O  0.30999255  0.71672403  0.41636435    -0.83340
Mg825      Mg  0.19831370  0.67548778  0.36565261     1.57960
C826        C  0.25401042  0.69327398  0.50039151     0.92040
O827        O  0.15806934  0.67118819  0.37185267    -0.81610
H828        H  0.18905094  0.70708857  0.46357448    -0.06950
C829        C  0.27108389  0.67026056  0.43066970     0.86980
O830        O  0.23770830  0.74787157  0.39249134    -0.76120
O831        O  0.20466458  0.66550468  0.40002667    -0.88880
O832        O  0.24183609  0.67781228  0.49112476    -0.81690
C833        C  0.19046930  0.63208068  0.45628932     0.92160
C834        C  0.14620710  0.66405314  0.38880842     0.92010
Mg835      Mg  0.25813969  0.71891241  0.45259987     1.57950
O836        O  0.29437485  0.72672222  0.44780136    -0.81610
O837        O  0.22086269  0.71951675  0.46112971    -0.75850
O838        O  0.18093829  0.64453467  0.44175003    -0.81690
O839        O  0.19560219  0.68640113  0.32812958    -0.83400
O840        O  0.28092714  0.74288067  0.37905697    -0.81720
C841        C  0.20602231  0.70484708  0.45716521     0.86440
O842        O  0.25360960  0.72531065  0.41730781    -0.88870
O843        O  0.25916076  0.68313211  0.44211091    -0.88970
O844        O  0.27833539  0.67549397  0.41129557    -0.76030
Mg845      Mg  0.18279211  0.67903715  0.42545554     1.57970
O846        O  0.20839496  0.63805581  0.46654523    -0.83400
H847        H  0.18618020  0.73961230  0.38422764    -0.07130
O848        O  0.25110105  0.69972480  0.37375656    -0.88670
H849        H  0.26973641  0.67695967  0.35712653    -0.06950
H850        H  0.24516650  0.75721340  0.42471564    -0.07130
C851        C  0.25316722  0.68229821  0.36264197     0.86420
C852        C  0.19013710  0.72217524  0.38806495     0.87010
C853        C  0.24547121  0.74390776  0.41220070     0.87050
H854        H  0.27428693  0.65338931  0.43693694    -0.07110
O855        O  0.22903451  0.64571709  0.41999158    -0.76130
Mg856      Mg  0.27885587  0.70935599  0.39487173     1.58000
H857        H  0.21798167  0.63654888  0.38886709    -0.07120
C858        C  0.21047760  0.69662349  0.31596299     0.92040
O859        O  0.26911794  0.73909188  0.34446566    -0.83360
C860        C  0.28542698  0.74194539  0.35839014     0.92100
O861        O  0.15228464  0.66731854  0.40882297    -0.83350
Mg862      Mg  0.23421206  0.66285073  0.45474718     1.58180
O863        O  0.22583801  0.70920812  0.32460961    -0.81680
O864        O  0.26320844  0.70916167  0.48910389    -0.83380
O865        O  0.50827364  0.35712271  0.61686760    -0.88960
C866        C  0.49457997  0.38672493  0.55594340     0.87070
Mg867      Mg  0.48334281  0.34456682  0.63721618     1.58150
O868        O  0.50029123  0.42532875  0.59995104    -0.88690
O869        O  0.52750042  0.38794186  0.62436258    -0.76020
C870        C  0.39531095  0.41043504  0.63542688     0.92120
O871        O  0.46994030  0.33794240  0.58056226    -0.75840
O872        O  0.40141548  0.39041134  0.63229610    -0.83340
Mg873      Mg  0.50720456  0.34649164  0.58111773     1.57960
C874        C  0.45987763  0.48311748  0.60289687     0.92040
O875        O  0.54341250  0.35123088  0.57323872    -0.81610
H876        H  0.51892221  0.44199935  0.62269612    -0.06950
C877        C  0.43937416  0.41092056  0.57753797     0.86980
O878        O  0.47814898  0.37938386  0.65420937    -0.76120
O879        O  0.50269930  0.38172281  0.57457806    -0.88880
O880        O  0.47519977  0.47437852  0.59034345    -0.81690
C881        C  0.53460657  0.44044716  0.55761687     0.92160
C882        C  0.55557541  0.36189585  0.58683848     0.92010
Mg883      Mg  0.44748519  0.43355345  0.62412657     1.57950
O884        O  0.40721793  0.42737409  0.62831762    -0.81610
O885        O  0.48517807  0.44155994  0.62900267    -0.75850
O886        O  0.53006369  0.41978666  0.55679735    -0.81690
O887        O  0.51224901  0.31008080  0.59098227    -0.83400
O888        O  0.43000839  0.35755390  0.65544514    -0.81720
C889        C  0.50235189  0.43648520  0.61735416     0.86440
O890        O  0.45377574  0.39922838  0.63430264    -0.88870
O891        O  0.45141661  0.42443107  0.58824696    -0.88970
O892        O  0.43179098  0.39255426  0.58614126    -0.76030
Mg893      Mg  0.52801382  0.40417584  0.59041314     1.57970
O894        O  0.51833317  0.45441636  0.56042760    -0.83400
H895        H  0.52341328  0.36241109  0.64658811    -0.07130
O896        O  0.45959357  0.35397965  0.61152038    -0.88670
H897        H  0.43816576  0.33549539  0.59307541    -0.06950
H898        H  0.46704364  0.41053136  0.66322973    -0.07130
C899        C  0.45513671  0.34193207  0.59525458     0.86420
C900        C  0.52021665  0.36860529  0.62968748     0.87010
C901        C  0.46607283  0.39691543  0.65109105     0.87050
H902        H  0.43544877  0.41466156  0.56007344    -0.07110
O903        O  0.48684563  0.40641709  0.55185615    -0.76130
Mg904      Mg  0.43194248  0.37372867  0.62083976     1.58000
H905        H  0.49426774  0.37413042  0.54271386    -0.07120
C906        C  0.50304924  0.29885213  0.60690179     0.92040
O907        O  0.45753291  0.33285885  0.66204174    -0.83360
C908        C  0.43956167  0.34306523  0.66795330     0.92100
O909        O  0.55913578  0.38263082  0.58316419    -0.83350
Mg910      Mg  0.48229455  0.43952091  0.57256030     1.58180
O911        O  0.49091799  0.30816204  0.62236434    -0.81680
O912        O  0.44487981  0.47104939  0.61306128    -0.83380
O913        O  0.50113694  0.21593331  0.61681915    -0.88960
C914        C  0.51497780  0.18639002  0.55586530     0.87070
Mg915      Mg  0.52600533  0.22850489  0.63724418     1.58150
O916        O  0.50923211  0.14769123  0.59982133    -0.88690
O917        O  0.48196250  0.18504705  0.62421901    -0.76020
C918        C  0.61412060  0.16282873  0.63550961     0.92120
O919        O  0.53954287  0.23522324  0.58060009    -0.75840
O920        O  0.60798500  0.18284132  0.63238624    -0.83340
Mg921      Mg  0.50230279  0.22659973  0.58106183     1.57960
C922        C  0.54993848  0.09002165  0.60276213     0.92040
O923        O  0.46615079  0.22181156  0.57303915    -0.81610
H924        H  0.49061034  0.13094058  0.62253020    -0.06950
C925        C  0.57014883  0.16232795  0.57753428     0.86980
O926        O  0.53120572  0.19367086  0.65421524    -0.76120
O927        O  0.50685845  0.19136445  0.57450550    -0.88880
O928        O  0.53456276  0.09868296  0.59020712    -0.81690
C929        C  0.47501567  0.13258871  0.55737454     0.92160
C930        C  0.45396726  0.21115994  0.58663444     0.92010
Mg931      Mg  0.56202752  0.13961250  0.62409081     1.57950
O932        O  0.60226307  0.14587903  0.62836135    -0.81610
O933        O  0.52434311  0.13148186  0.62889106    -0.75850
O934        O  0.47952038  0.15326458  0.55661182    -0.81690
O935        O  0.49718405  0.26300334  0.59094608    -0.83400
O936        O  0.57932230  0.21555475  0.65552911    -0.81720
C937        C  0.50717403  0.13651287  0.61721696     0.86440
O938        O  0.55562420  0.17390081  0.63429643    -0.88870
O939        O  0.55813160  0.14875952  0.58820923    -0.88970
O940        O  0.57767938  0.18069210  0.58617807    -0.76030
Mg941      Mg  0.48151680  0.16885872  0.59025519     1.57970
O942        O  0.49131042  0.11864429  0.56023065    -0.83400
H943        H  0.48596212  0.21052355  0.64650648    -0.07130
O944        O  0.54980316  0.21916837  0.61157799    -0.88670
H945        H  0.57126011  0.23773037  0.59323155    -0.06950
H946        H  0.54233786  0.16251647  0.66319339    -0.07130
C947        C  0.55429620  0.23125295  0.59534342     0.86420
C948        C  0.48919974  0.20438412  0.62959617     0.87010
C949        C  0.54330505  0.17616012  0.65107794     0.87050
H950        H  0.57410049  0.15863941  0.56006583    -0.07110
O951        O  0.52272337  0.16670700  0.55176541    -0.76130
Mg952      Mg  0.57745194  0.19945522  0.62090358     1.58000
H953        H  0.51527408  0.19899753  0.54264079    -0.07120
C954        C  0.50632574  0.27422221  0.60690033     0.92040
O955        O  0.55177628  0.24021434  0.66214284    -0.83360
C956        C  0.56975116  0.23000795  0.66805564     0.92100
O957        O  0.45040191  0.19042410  0.58297489    -0.83350
Mg958      Mg  0.52732527  0.13358639  0.57245319     1.58180
O959        O  0.51842112  0.26490668  0.62238879    -0.81680
O960        O  0.56481604  0.10217272  0.61298557    -0.83380
O961        O  0.43554155  0.78974261  0.36615918    -0.88960
C962        C  0.40600942  0.77579077  0.30527024     0.87070
Mg963      Mg  0.44816241  0.76493126  0.38661968     1.58150
O964        O  0.36739595  0.78151916  0.34927930    -0.88690
O965        O  0.40470257  0.80895356  0.37356435    -0.76020
C966        C  0.38252794  0.67673026  0.38539591     0.92120
O967        O  0.45481943  0.75136892  0.33000426    -0.75840
O968        O  0.40254283  0.68284084  0.38217192    -0.83340
Mg969      Mg  0.44621021  0.78862079  0.33042205     1.57960
C970        C  0.30973010  0.74089536  0.35242638     0.92040
O971        O  0.44141376  0.82480865  0.32242326    -0.81610
H972        H  0.35066861  0.80017862  0.37195305    -0.06950
C973        C  0.38195384  0.72049055  0.32715796     0.86980
O974        O  0.41336938  0.75971210  0.40365274    -0.76120
O975        O  0.41099000  0.78400577  0.32386631    -0.88880
O976        O  0.31843145  0.75618089  0.33979402    -0.81690
C977        C  0.35211391  0.81560934  0.30686546     0.92160
C978        C  0.43067751  0.83698692  0.33595254     0.92010
Mg979      Mg  0.35930792  0.72877251  0.37372136     1.57950
O980        O  0.36556787  0.68854530  0.37820043    -0.81610
O981        O  0.35121112  0.76646500  0.37840164    -0.75850
O982        O  0.37279928  0.81117614  0.30601505    -0.81690
O983        O  0.48260001  0.79380652  0.34030730    -0.83400
O984        O  0.43530106  0.71165178  0.40507650    -0.81720
C985        C  0.35623346  0.78360849  0.36667836     0.86440
O986        O  0.39360449  0.73519975  0.38384614    -0.88870
O987        O  0.36844063  0.73257126  0.33781408    -0.88970
O988        O  0.40032556  0.71297134  0.33579130    -0.76030
Mg989      Mg  0.38846118  0.80929071  0.33961980     1.57970
O990        O  0.33822776  0.79926338  0.30972175    -0.83400
H991        H  0.43022112  0.80498950  0.39581511    -0.07130
O992        O  0.43882559  0.74104208  0.36101145    -0.88670
H993        H  0.45734200  0.71962977  0.34258930    -0.06950
H994        H  0.38225279  0.74853195  0.41272248    -0.07130
C995        C  0.45086941  0.73658646  0.34473758     0.86420
C996        C  0.42404041  0.80171620  0.37892754     0.87010
C997        C  0.39587536  0.74756362  0.40058691     0.87050
H998        H  0.37820774  0.71646828  0.30971742    -0.07110
O999        O  0.38634591  0.76794709  0.30123629    -0.76130
Mg1000     Mg  0.41914603  0.71336192  0.37048521     1.58000
H1001       H  0.41859937  0.77548224  0.29202913    -0.07120
C1002       C  0.49382857  0.78470395  0.35627562     0.92040
O1003       O  0.45994165  0.73925400  0.41156796    -0.83360
C1004       C  0.44975298  0.72128904  0.41755535     0.92100
O1005       O  0.40993506  0.84044799  0.33222617    -0.83350
Mg1006     Mg  0.35326199  0.76333668  0.32198161     1.58180
O1007       O  0.48453564  0.77257758  0.37175752    -0.81680
O1008       O  0.32183193  0.72599750  0.36268048    -0.83380
O1009       O  0.57668970  0.78319778  0.36651443    -0.88960
C1010       C  0.60637884  0.79700005  0.30567472     0.87070
Mg1011     Mg  0.56394787  0.80807899  0.38680246     1.58150
O1012       O  0.64488523  0.79158514  0.34981192    -0.88690
O1013       O  0.60756881  0.76413427  0.37413836    -0.76020
C1014       C  0.62931830  0.89647461  0.38540516     0.92120
O1015       O  0.55744540  0.82139222  0.33012664    -0.75840
O1016       O  0.60933755  0.89027859  0.38215031    -0.83340
Mg1017     Mg  0.56616504  0.78416954  0.33073348     1.57960
C1018       C  0.70242146  0.83246976  0.35276979     0.92040
O1019       O  0.57112797  0.74797947  0.32290148    -0.81610
H1020       H  0.66164628  0.77307723  0.37259194    -0.06950
C1021       C  0.63021864  0.85246723  0.32732999     0.86980
O1022       O  0.59868402  0.81344627  0.40391656    -0.76120
O1023       O  0.60137636  0.78886972  0.32430636    -0.88880
O1024       O  0.69381571  0.81705299  0.34023996    -0.81690
C1025       C  0.66030218  0.75729587  0.30760227     0.92160
C1026       C  0.58180420  0.73587025  0.33654303     0.92010
Mg1027     Mg  0.65275885  0.84446011  0.37398218     1.57950
O1028       O  0.64634157  0.88469266  0.37830237    -0.81610
O1029       O  0.66099515  0.80681942  0.37886721    -0.75850
O1030       O  0.63962530  0.76172777  0.30668475    -0.81690
O1031       O  0.52975616  0.77892103  0.34047532    -0.83400
O1032       O  0.57663918  0.86145443  0.40507778    -0.81720
C1033       C  0.65603444  0.78960672  0.36723024     0.86440
O1034       O  0.61845694  0.83794439  0.38407297    -0.88870
O1035       O  0.64373228  0.84046237  0.33807216    -0.88970
O1036       O  0.61180733  0.85997486  0.33588906    -0.76030
Mg1037     Mg  0.62391658  0.76370918  0.34024412     1.57970
O1038       O  0.67417882  0.77365748  0.31042500    -0.83400
H1039       H  0.58192420  0.76807081  0.39625444    -0.07130
O1040       O  0.57333560  0.83187760  0.36112200    -0.88670
H1041       H  0.55481769  0.85317469  0.34256219    -0.06950
H1042       H  0.62975238  0.82472148  0.41302732    -0.07130
C1043       C  0.56132541  0.83624286  0.34480014     0.86420
C1044       C  0.58817261  0.77130656  0.37938092     0.87010
C1045       C  0.61616348  0.82562278  0.40085108     0.87050
H1046       H  0.63400218  0.85643392  0.30988201    -0.07110
O1047       O  0.62603210  0.80486574  0.30163713    -0.76130
Mg1048     Mg  0.59289021  0.85965467  0.37053901     1.58000
H1049       H  0.59381946  0.79721074  0.29240711    -0.07120
C1050       C  0.51844040  0.78809951  0.35633477     0.92040
O1051       O  0.55202349  0.83383895  0.41160768    -0.83360
C1052       C  0.56216431  0.85184158  0.41755480     0.92100
O1053       O  0.60257569  0.73244212  0.33295971    -0.83350
Mg1054     Mg  0.65903861  0.80965377  0.32243484     1.58180
O1055       O  0.52764755  0.80030810  0.37179854    -0.81680
O1056       O  0.69022987  0.84734201  0.36295062    -0.83380
O1057       O  0.07593511  0.78960351  0.65917704    -0.88960
C1058       C  0.10546077  0.77564723  0.72005670     0.87070
Mg1059     Mg  0.06327570  0.76478279  0.63875940     1.58150
O1060       O  0.14406839  0.78133376  0.67603785    -0.88690
O1061       O  0.10679587  0.80878041  0.65171990    -0.76020
C1062       C  0.12881967  0.67654200  0.64000690     0.92120
O1063       O  0.05662920  0.75125688  0.69538259    -0.75840
O1064       O  0.10881323  0.68266311  0.64324143    -0.83340
Mg1065     Mg  0.06528939  0.78850245  0.69492249     1.57960
C1066       C  0.20169974  0.74072756  0.67294124     0.92040
O1067       O  0.07014273  0.82468481  0.70287615    -0.81610
H1068       H  0.16082048  0.79998186  0.65335470    -0.06950
C1069       C  0.12947188  0.72031565  0.69822524     0.86980
O1070       O  0.09805676  0.75953180  0.62171186    -0.76120
O1071       O  0.10049390  0.78385872  0.70145241    -0.88880
O1072       O  0.19299665  0.75600690  0.68556135    -0.81690
C1073       C  0.15937606  0.81543647  0.71839873     0.92160
C1074       C  0.08086298  0.83685174  0.68931291     0.92010
Mg1075     Mg  0.15211190  0.72858183  0.65164818     1.57950
O1076       O  0.14579818  0.68834975  0.64718714    -0.81610
O1077       O  0.16024684  0.76626700  0.64693246    -0.75850
O1078       O  0.13868925  0.81100933  0.71925984    -0.81690
O1079       O  0.02891438  0.79372087  0.68507256    -0.83400
O1080       O  0.07607098  0.71148697  0.62035021    -0.81720
C1081       C  0.15523819  0.78341484  0.65864080     0.86440
O1082       O  0.11781418  0.73501880  0.64152632    -0.88870
O1083       O  0.14298671  0.73239470  0.68755488    -0.88970
O1084       O  0.11108932  0.71280142  0.68960661    -0.76030
Mg1085     Mg  0.12304088  0.80912436  0.68566019     1.57970
O1086       O  0.17325025  0.79908637  0.71557272    -0.83400
H1087       H  0.08124662  0.80483316  0.62950066    -0.07130
O1088       O  0.07261035  0.74090156  0.66438745    -0.88670
H1089       H  0.05407617  0.71950899  0.68283887    -0.06950
H1090       H  0.12915859  0.74834024  0.61263159    -0.07130
C1091       C  0.06056551  0.73646130  0.68066899     0.86420
C1092       C  0.08743971  0.80156262  0.64638517     0.87010
C1093       C  0.11554316  0.74737965  0.62477728     0.87050
H1094       H  0.13322598  0.71629123  0.71566526    -0.07110
O1095       O  0.12511199  0.76778993  0.72410064    -0.76130
Mg1096     Mg  0.09225274  0.71320082  0.65492313     1.58000
H1097       H  0.09286792  0.77535132  0.73329547    -0.07120
C1098       C  0.01765790  0.78462019  0.66912666     0.92040
O1099       O  0.05144990  0.73909182  0.61384548    -0.83360
C1100       C  0.06161572  0.72111759  0.60787265     0.92100
O1101       O  0.10161390  0.84031135  0.69300046    -0.83350
Mg1102     Mg  0.15818438  0.76316362  0.70335834     1.58180
O1103       O  0.02691797  0.77247334  0.65364956    -0.81680
O1104       O  0.18959988  0.72581793  0.66269466    -0.83380
O1105       O  0.93478823  0.78311907  0.65906223    -0.88960
C1106       C  0.90516336  0.79705815  0.71991401     0.87070
Mg1107     Mg  0.94750888  0.80793549  0.63865588     1.58150
O1108       O  0.86661187  0.79147577  0.67584545    -0.88690
O1109       O  0.90389829  0.76401033  0.65156115    -0.76020
C1110       C  0.88217059  0.89633735  0.63990918     0.92120
O1111       O  0.95408414  0.82142353  0.69529900    -0.75840
O1112       O  0.90214890  0.89013578  0.64314701    -0.83340
Mg1113     Mg  0.94536766  0.78419557  0.69482640     1.57960
C1114       C  0.80907204  0.83226858  0.67268922     0.92040
O1115       O  0.94044650  0.74802452  0.70277678    -0.81610
H1116       H  0.84985798  0.77290806  0.65311191    -0.06950
C1117       C  0.88132235  0.85243388  0.69808301     0.86980
O1118       O  0.91275359  0.81324923  0.62157998    -0.76120
O1119       O  0.91015344  0.78887699  0.70130591    -0.88880
O1120       O  0.81768821  0.81691546  0.68529508    -0.81690
C1121       C  0.85121579  0.75730957  0.71822665     0.92160
C1122       C  0.92975919  0.73587512  0.68918227     0.92010
Mg1123     Mg  0.85873233  0.84430262  0.65147599     1.57950
O1124       O  0.86514337  0.88454529  0.64701518    -0.81610
O1125       O  0.85051932  0.80663404  0.64673323    -0.75850
O1126       O  0.87190714  0.76172178  0.71907858    -0.81690
O1127       O  0.98175793  0.77894139  0.68503064    -0.83400
O1128       O  0.93480639  0.86126344  0.62023431    -0.81720
C1129       C  0.85547006  0.78945240  0.65842714     0.86440
O1130       O  0.89302149  0.83779184  0.64137800    -0.88870
O1131       O  0.86778324  0.84040670  0.68739288    -0.88970
O1132       O  0.89972787  0.85992334  0.68947936    -0.76030
Mg1133     Mg  0.88760107  0.76364758  0.68548003     1.57970
O1134       O  0.83735893  0.77367249  0.71534206    -0.83400
H1135       H  0.92949266  0.76791753  0.62937843    -0.07130
O1136       O  0.93817859  0.83180477  0.66427355    -0.88670
H1137       H  0.95672148  0.85316407  0.68273837    -0.06950
H1138       H  0.88168018  0.82450032  0.61247817    -0.07130
C1139       C  0.95020513  0.83622341  0.68056875     0.86420
C1140       C  0.92327993  0.77118870  0.64625549     0.87010
C1141       C  0.89528605  0.82543217  0.62463247     0.87050
H1142       H  0.87756707  0.85643674  0.71552659    -0.07110
O1143       O  0.88551175  0.80492410  0.72394064    -0.76130
Mg1144     Mg  0.91860751  0.85954289  0.65480689     1.58000
H1145       H  0.91773349  0.79731560  0.73317173    -0.07120
C1146       C  0.99305197  0.78804013  0.66910141     0.92040
O1147       O  0.95939473  0.83363019  0.61374172    -0.83360
C1148       C  0.94925220  0.85161822  0.60775881     0.92100
O1149       O  0.90899443  0.73242667  0.69281151    -0.83350
Mg1150     Mg  0.85248127  0.80963152  0.70315343     1.58180
O1151       O  0.98383059  0.80019704  0.65360438    -0.81680
O1152       O  0.82125408  0.84715505  0.66249669    -0.83380
O1153       O  0.14334692  0.84067715  0.18748041    -0.88960
C1154       C  0.11594857  0.82599689  0.12462966     0.87070
Mg1155     Mg  0.15851124  0.80982421  0.20316002     1.58150
O1156       O  0.07298914  0.83233304  0.16421084    -0.88690
O1157       O  0.11146050  0.86026823  0.18958856    -0.76020
C1158       C  0.08109349  0.73628123  0.18876760     0.92120
O1159       O  0.16059013  0.80699722  0.14672697    -0.75840
O1160       O  0.10183639  0.73277982  0.19245246    -0.83340
Mg1161     Mg  0.15250228  0.84466762  0.15160189     1.57960
C1162       C  0.01796105  0.78874676  0.16877536     0.92040
O1163       O  0.14622707  0.88493017  0.14733127    -0.81610
H1164       H  0.05448521  0.85366883  0.18273392    -0.06950
C1165       C  0.08774134  0.77174794  0.14600144     0.86980
O1166       O  0.12542786  0.80512579  0.22387528    -0.76120
O1167       O  0.11821241  0.83829517  0.14142089    -0.88880
O1168       O  0.02726682  0.80092250  0.15333997    -0.81690
C1169       C  0.06209482  0.85232831  0.10773761     0.92160
C1170       C  0.12925778  0.89678421  0.14021409     0.92010
Mg1171     Mg  0.06558485  0.78462133  0.19457144     1.57950
O1172       O  0.07038155  0.74839635  0.20237320    -0.81610
O1173       O  0.05699709  0.82187250  0.19517418    -0.75850
O1174       O  0.07654010  0.86192604  0.12025845    -0.81690
O1175       O  0.18998486  0.84735252  0.16268257    -0.83400
O1176       O  0.13895206  0.76191564  0.21886849    -0.81720
C1177       C  0.06094942  0.83671922  0.18050676     0.86440
O1178       O  0.10079794  0.78918716  0.20114491    -0.88870
O1179       O  0.07624696  0.78366066  0.15883344    -0.88970
O1180       O  0.10708694  0.76449478  0.15131510    -0.76030
Mg1181     Mg  0.09265816  0.86005506  0.15488012     1.57970
O1182       O  0.05189421  0.83435236  0.11366578    -0.83400
H1183       H  0.13356642  0.85663623  0.21565484    -0.07130
O1184       O  0.14438539  0.79179283  0.17576189    -0.88670
H1185       H  0.16111764  0.77324958  0.15299606    -0.06950
H1186       H  0.09316932  0.79754342  0.23302148    -0.07130
C1187       C  0.15555551  0.78979314  0.15835651     0.86420
C1188       C  0.12982845  0.85270372  0.19819179     0.87010
C1189       C  0.10576764  0.79730322  0.21978760     0.87050
H1190       H  0.08155092  0.76855519  0.12910138    -0.07110
O1191       O  0.09845556  0.81385976  0.12150540    -0.76130
Mg1192     Mg  0.12331811  0.76397756  0.18526043     1.58000
H1193       H  0.12957760  0.82507644  0.11249720    -0.07120
C1194       C  0.20205475  0.83234473  0.17281765     0.92040
O1195       O  0.17353037  0.77384051  0.21525881    -0.83360
C1196       C  0.15963837  0.75748661  0.21803351     0.92100
O1197       O  0.10924767  0.89064140  0.14339450    -0.83350
Mg1198     Mg  0.06364779  0.80857431  0.13849780     1.58180
O1199       O  0.19332537  0.81701058  0.18536686    -0.81680
O1200       O  0.02918652  0.77952407  0.18467719    -0.83380
O1201       O  0.86794331  0.73346288  0.18726952    -0.88960
C1202       C  0.89542093  0.74827137  0.12443056     0.87070
Mg1203     Mg  0.85274238  0.76428159  0.20298916     1.58150
O1204       O  0.93832175  0.74186867  0.16405417    -0.88690
O1205       O  0.89983103  0.71387532  0.18936059    -0.76020
C1206       C  0.93015249  0.83783016  0.18877084     0.92120
O1207       O  0.85069402  0.76720266  0.14654995    -0.75840
O1208       O  0.90940700  0.84133530  0.19242734    -0.83340
Mg1209     Mg  0.85883750  0.72953441  0.15137158     1.57960
C1210       C  0.99333775  0.78544836  0.16875433     0.92040
O1211       O  0.86514790  0.68929310  0.14700749    -0.81610
H1212       H  0.95682958  0.72049610  0.18253644    -0.06950
C1213       C  0.92354863  0.80245300  0.14589368     0.86980
O1214       O  0.88581270  0.76895688  0.22371633    -0.76120
O1215       O  0.89313496  0.73596078  0.14121710    -0.88880
O1216       O  0.98406044  0.77329035  0.15329556    -0.81690
C1217       C  0.94930778  0.72192640  0.10758204     0.92160
C1218       C  0.88212436  0.67747111  0.13985796     0.92010
Mg1219     Mg  0.94567592  0.78950318  0.19447852     1.57950
O1220       O  0.94083277  0.82569063  0.20238007    -0.81610
O1221       O  0.95430108  0.75226216  0.19503203    -0.75850
O1222       O  0.93483433  0.71234276  0.12008367    -0.81690
O1223       O  0.82137241  0.72674920  0.16245810    -0.83400
O1224       O  0.87231978  0.81214148  0.21877322    -0.81720
C1225       C  0.95035812  0.73744690  0.18034095     0.86440
O1226       O  0.91045964  0.78489946  0.20099952    -0.88870
O1227       O  0.93506385  0.79054370  0.15871676    -0.88970
O1228       O  0.90419823  0.80968835  0.15121976    -0.76030
Mg1229     Mg  0.91867278  0.71416430  0.15466821     1.57970
O1230       O  0.95951693  0.73989103  0.11352495    -0.83400
H1231       H  0.87770815  0.71744989  0.21542405    -0.07130
O1232       O  0.86687083  0.78235710  0.17561077    -0.88670
H1233       H  0.85012224  0.80093616  0.15287928    -0.06950
H1234       H  0.91807079  0.77651045  0.23287332    -0.07130
C1235       C  0.85570341  0.78438580  0.15820971     0.86420
C1236       C  0.88145712  0.72141926  0.19796911     0.87010
C1237       C  0.90547956  0.77676812  0.21963675     0.87050
H1238       H  0.92973182  0.80566805  0.12899166    -0.07110
O1239       O  0.91292632  0.76039812  0.12132125    -0.76130
Mg1240     Mg  0.88794644  0.81014784  0.18516058     1.58000
H1241       H  0.88180553  0.74920693  0.11228671    -0.07120
C1242       C  0.80923790  0.74164017  0.17268020     0.92040
O1243       O  0.83772606  0.80029215  0.21511136    -0.83360
C1244       C  0.85164644  0.81661665  0.21793827     0.92100
O1245       O  0.90212833  0.68360118  0.14308092    -0.83350
Mg1246     Mg  0.94770922  0.76565645  0.13837072     1.58180
O1247       O  0.81790673  0.75700592  0.18523102    -0.81680
O1248       O  0.98208319  0.79465176  0.18464450    -0.83380
O1249       O  0.75856090  0.38946189  0.44222281    -0.88960
C1250       C  0.74478296  0.32874387  0.41233339     0.87070
Mg1251     Mg  0.73366853  0.40973472  0.45494505     1.58150
O1252       O  0.75033239  0.37301761  0.37397955    -0.88690
O1253       O  0.77773129  0.39717522  0.41142565    -0.76020
C1254       C  0.64550329  0.40876031  0.38930794     0.92120
O1255       O  0.72030383  0.35305501  0.46125993    -0.75840
O1256       O  0.65160097  0.40540390  0.40930164    -0.83340
Mg1257     Mg  0.75757113  0.35366641  0.45267202     1.57960
C1258       C  0.70975214  0.37626831  0.31629491     0.92040
O1259       O  0.79381467  0.34588647  0.44780058    -0.81610
H1260       H  0.76895589  0.39580311  0.35733801    -0.06950
C1261       C  0.68933856  0.35058046  0.38837186     0.86980
O1262       O  0.72843099  0.42695516  0.42024181    -0.76120
O1263       O  0.75296722  0.34732865  0.41741878    -0.88880
O1264       O  0.72504655  0.36364754  0.32496771    -0.81690
C1265       C  0.78452694  0.33092400  0.35839526     0.92160
C1266       C  0.80593562  0.35952232  0.43711139     0.92010
Mg1267     Mg  0.69754741  0.39729909  0.36598161     1.57950
O1268       O  0.65731271  0.40165378  0.37230372    -0.81610
O1269       O  0.73522368  0.40214654  0.35788583    -0.75850
O1270       O  0.78011674  0.32987620  0.37907518    -0.81690
O1271       O  0.76270563  0.36332738  0.48914101    -0.83400
O1272       O  0.68038867  0.42814664  0.44213540    -0.81720
C1273       C  0.75239224  0.39046091  0.36287840     0.86440
O1274       O  0.70395975  0.40722624  0.40034079    -0.88870
O1275       O  0.70141731  0.36135482  0.37494023    -0.88970
O1276       O  0.68179216  0.35907162  0.40679669    -0.76030
Mg1277     Mg  0.77816021  0.36334549  0.39495720     1.57970
O1278       O  0.76815494  0.33372673  0.34454724    -0.83400
H1279       H  0.77372588  0.41920872  0.43712134    -0.07130
O1280       O  0.70985610  0.38410460  0.44542799    -0.88670
H1281       H  0.68849988  0.36546198  0.46381280    -0.06950
H1282       H  0.71727512  0.43619333  0.38917246    -0.07130
C1283       C  0.70545643  0.36773351  0.45736941     0.86420
C1284       C  0.77049639  0.40235965  0.43081326     0.87010
C1285       C  0.71630588  0.42397268  0.40272026     0.87050
H1286       H  0.68534356  0.33315833  0.38450463    -0.07110
O1287       O  0.73691926  0.32481527  0.39266072    -0.76130
Mg1288     Mg  0.68214456  0.39365166  0.42581370     1.58000
H1289       H  0.74451330  0.31542258  0.42484046    -0.07120
C1290       C  0.75350990  0.37917903  0.50045536     0.92040
O1291       O  0.70792505  0.43454015  0.46685966    -0.83360
C1292       C  0.68998680  0.44056579  0.45665905     0.92100
O1293       O  0.80936614  0.35593331  0.41633930    -0.83350
Mg1294     Mg  0.73223079  0.34572138  0.35969435     1.58180
O1295       O  0.74133138  0.39465890  0.49123590    -0.81680
O1296       O  0.69481793  0.38644565  0.32842146    -0.83380
O1297       O  0.75177226  0.38929332  0.58331603    -0.88960
C1298       C  0.76555564  0.32851911  0.61318676     0.87070
Mg1299     Mg  0.77665962  0.40964888  0.57062388     1.58150
O1300       O  0.75986133  0.37274707  0.65154464    -0.88690
O1301       O  0.73250140  0.39685759  0.61408451    -0.76020
C1302       C  0.86470146  0.40878017  0.63630979     0.92120
O1303       O  0.79009046  0.35297620  0.56427475    -0.75840
O1304       O  0.85868595  0.40535244  0.61630624    -0.83340
Mg1305     Mg  0.75281694  0.35350526  0.57282354     1.57960
C1306       C  0.80048476  0.37611763  0.70920508     0.92040
O1307       O  0.71658559  0.34559219  0.57762683    -0.81610
H1308       H  0.74121220  0.39552486  0.66814079    -0.06950
C1309       C  0.82091020  0.35045439  0.63720000     0.86980
O1310       O  0.78182807  0.42685165  0.60531960    -0.76120
O1311       O  0.75736728  0.34709607  0.60808947    -0.88880
O1312       O  0.78516867  0.36347618  0.70057712    -0.81690
C1313       C  0.72566180  0.33044935  0.66704357     0.92160
C1314       C  0.70442169  0.35915536  0.58834055     0.92010
Mg1315     Mg  0.81263977  0.39716436  0.65954275     1.57950
O1316       O  0.85286782  0.40164580  0.65329084    -0.81610
O1317       O  0.77493879  0.40192229  0.66759238    -0.75850
O1318       O  0.73013175  0.32947716  0.64637241    -0.81690
O1319       O  0.74771127  0.36324827  0.53635698    -0.83400
O1320       O  0.82994530  0.42805441  0.58348747    -0.81720
C1321       C  0.75778275  0.39020138  0.66261499     0.86440
O1322       O  0.80627850  0.40709735  0.62520392    -0.88870
O1323       O  0.80880363  0.36120683  0.65061253    -0.88970
O1324       O  0.82848975  0.35896881  0.61879274    -0.76030
Mg1325     Mg  0.73209311  0.36299680  0.63052334     1.57970
O1326       O  0.74199042  0.33338978  0.68092782    -0.83400
H1327       H  0.73656856  0.41899832  0.58847703    -0.07130
O1328       O  0.80047951  0.38402663  0.58013500    -0.88670
H1329       H  0.82187513  0.36545556  0.56174743    -0.06950
H1330       H  0.79298589  0.43605186  0.63639453    -0.07130
C1331       C  0.80491116  0.36768264  0.56818171     0.86420
C1332       C  0.73979921  0.40213131  0.59473970     0.87010
C1333       C  0.79395016  0.42385013  0.62283608     0.87050
H1334       H  0.82490360  0.33303284  0.64106939    -0.07110
O1335       O  0.77337153  0.32458716  0.63287964    -0.76130
Mg1336     Mg  0.82816033  0.39356291  0.59978020     1.58000
H1337       H  0.76586223  0.31520711  0.60067847    -0.07120
C1338       C  0.75688778  0.37914673  0.52507391     0.92040
O1339       O  0.80242419  0.43452326  0.55877057    -0.83360
C1340       C  0.82036986  0.44051422  0.56898725     0.92100
O1341       O  0.70095934  0.35547869  0.60909211    -0.83350
Mg1342     Mg  0.77798187  0.34550148  0.66584875     1.58180
O1343       O  0.76904766  0.39462321  0.53432269    -0.81680
O1344       O  0.81538693  0.38631050  0.69705122    -0.83380
O1345       O  0.00224341  0.71649300  0.11592676    -0.88960
C1346       C  0.01597818  0.68694882  0.05500598     0.87070
Mg1347     Mg  0.02712926  0.72910833  0.13628409     1.58150
O1348       O  0.01044492  0.64829800  0.09902361    -0.88690
O1349       O  0.98311503  0.68561711  0.12345367    -0.76020
C1350       C  0.11534823  0.66356995  0.13480896     0.92120
O1351       O  0.04052445  0.73575900  0.07962717    -0.75840
O1352       O  0.10920780  0.68357188  0.13160412    -0.83340
Mg1353     Mg  0.00327232  0.72713699  0.08018378     1.57960
C1354       C  0.05122279  0.59065315  0.10186848     0.92040
O1355       O  0.96706923  0.72229954  0.07233292    -0.81610
H1356       H  0.99188530  0.63149075  0.12173899    -0.06950
C1357       C  0.07139496  0.66294934  0.07665446     0.86980
O1358       O  0.03238493  0.69429616  0.15328555    -0.76120
O1359       O  0.00785859  0.69192066  0.07364663    -0.88880
O1360       O  0.03583155  0.59932509  0.08934591    -0.81690
C1361       C  0.97613672  0.63306481  0.05675300     0.92160
C1362       C  0.95493621  0.71161432  0.08595408     0.92010
Mg1363     Mg  0.06329579  0.64025305  0.12322491     1.57950
O1364       O  0.10354141  0.64659507  0.12761974    -0.81610
O1365       O  0.02562747  0.63206421  0.12804069    -0.75850
O1366       O  0.98058567  0.65374820  0.05590967    -0.81690
O1367       O  0.99813955  0.76353722  0.09005138    -0.83400
O1368       O  0.08042763  0.71623000  0.15460962    -0.81720
C1369       C  0.00843128  0.63709379  0.11640677     0.86440
O1370       O  0.05684481  0.67453720  0.13340701    -0.88870
O1371       O  0.05935133  0.64941173  0.08733806    -0.88970
O1372       O  0.07894181  0.68131358  0.08528529    -0.76030
Mg1373     Mg  0.98263235  0.66938100  0.08951650     1.57970
O1374       O  0.99248702  0.61917136  0.05953400    -0.83400
H1375       H  0.98709841  0.71118023  0.14564510    -0.07130
O1376       O  0.05093211  0.71976613  0.11060135    -0.88670
H1377       H  0.07230262  0.73828379  0.09210764    -0.06950
H1378       H  0.04355310  0.66316765  0.16230574    -0.07130
C1379       C  0.05534821  0.73180984  0.09431172     0.86420
C1380       C  0.99032423  0.70498487  0.12875392     0.87010
C1381       C  0.04450981  0.67679779  0.15017635     0.87050
H1382       H  0.07536671  0.65922804  0.05919612    -0.07110
O1383       O  0.02379652  0.66729149  0.05092704    -0.76130
Mg1384     Mg  0.07863995  0.70011495  0.11999834     1.58000
H1385       H  0.01622175  0.69954145  0.04176460    -0.07120
C1386       C  0.00732494  0.77477365  0.10596636     0.92040
O1387       O  0.05287324  0.74089219  0.16115027    -0.83360
C1388       C  0.07082604  0.73068108  0.16711131     0.92100
O1389       O  0.95143751  0.69086163  0.08231712    -0.83350
Mg1390     Mg  0.02851258  0.63420214  0.07162741     1.58180
O1391       O  0.01948290  0.76548222  0.12141826    -0.81680
O1392       O  0.06611172  0.60279819  0.11209139    -0.83380
O1393       O  0.00909840  0.85764755  0.11604694    -0.88960
C1394       C  0.99537895  0.88727365  0.05519008     0.87070
Mg1395     Mg  0.98417347  0.84501077  0.13634620     1.58150
O1396       O  0.00092567  0.92578241  0.09929332    -0.88690
O1397       O  0.02828342  0.88846042  0.12364510    -0.76020
C1398       C  0.89605465  0.91067021  0.13492876     0.92120
O1399       O  0.97086738  0.83845687  0.07969343    -0.75840
O1400       O  0.90213554  0.89065623  0.13168384    -0.83340
Mg1401     Mg  0.00812730  0.84706425  0.08029526     1.57960
C1402       C  0.96043909  0.98347205  0.10229276     0.92040
O1403       O  0.04435687  0.85192177  0.07248528    -0.81610
H1404       H  0.01954133  0.94249309  0.12202076    -0.06950
C1405       C  0.93997869  0.91135579  0.07684228     0.86980
O1406       O  0.97893097  0.87977682  0.15341310    -0.76120
O1407       O  0.00353257  0.88227176  0.07380984    -0.88880
O1408       O  0.97574331  0.97474506  0.08972289    -0.81690
C1409       C  0.03519036  0.94111957  0.05712793     0.92160
C1410       C  0.05648044  0.86262280  0.08609688     0.92010
Mg1411     Mg  0.94813032  0.93390638  0.12347529     1.57950
O1412       O  0.90789218  0.92763151  0.12775321    -0.81610
O1413       O  0.98580183  0.94199622  0.12834327    -0.75850
O1414       O  0.03071934  0.92045319  0.05618270    -0.81690
O1415       O  0.01325046  0.81065901  0.09011212    -0.83400
O1416       O  0.93086665  0.85790797  0.15463264    -0.81720
C1417       C  0.00297788  0.93694725  0.11669042     0.86440
O1418       O  0.95449664  0.89959389  0.13355880    -0.88870
O1419       O  0.95204666  0.92482170  0.08757555    -0.88970
O1420       O  0.93240862  0.89296498  0.08540065    -0.76030
Mg1421     Mg  0.02874289  0.90476989  0.08973322     1.57970
O1422       O  0.01886085  0.95502501  0.05988044    -0.83400
H1423       H  0.02423575  0.86284755  0.14578359    -0.07130
O1424       O  0.96040322  0.85443382  0.11065308    -0.88670
H1425       H  0.93905462  0.83596240  0.09210319    -0.06950
H1426       H  0.96775553  0.91087952  0.16249577    -0.07130
C1427       C  0.95601054  0.84241589  0.09434521     0.86420
C1428       C  0.02102864  0.86909654  0.12890620     0.87010
C1429       C  0.96680943  0.89728247  0.15033500     0.87050
H1430       H  0.93601671  0.91516017  0.05939834    -0.07110
O1431       O  0.98754797  0.90693557  0.05114791    -0.76130
Mg1432     Mg  0.93268903  0.87408666  0.12006555     1.58000
H1433       H  0.99511126  0.87470223  0.04193714    -0.07120
C1434       C  0.00401110  0.79939387  0.10598190     0.92040
O1435       O  0.95839271  0.83321237  0.16117269    -0.83360
C1436       C  0.94044513  0.84343510  0.16712840     0.92100
O1437       O  0.05995622  0.88337592  0.08244520    -0.83350
Mg1438     Mg  0.98289379  0.93997680  0.07191632     1.58180
O1439       O  0.99181395  0.80865939  0.12141852    -0.81680
O1440       O  0.94545161  0.97140619  0.11247341    -0.83380
O1441       O  0.00167411  0.35772018  0.40842979    -0.88960
C1442       C  0.01565313  0.38727523  0.46930225     0.87070
Mg1443     Mg  0.02649249  0.34505312  0.38799143     1.58150
O1444       O  0.00992948  0.42583479  0.42525608    -0.88690
O1445       O  0.98246558  0.38855172  0.40099095    -0.76020
C1446       C  0.11478140  0.41044485  0.38932541     0.92120
O1447       O  0.04004310  0.33841746  0.44463519    -0.75840
O1448       O  0.10863635  0.39045660  0.39260646    -0.83340
Mg1449     Mg  0.00281920  0.34710671  0.44420260     1.57960
C1450       C  0.05067100  0.48341234  0.42207442     0.92040
O1451       O  0.96667245  0.35194973  0.45226528    -0.81610
H1452       H  0.99132294  0.44254968  0.40252322    -0.06950
C1453       C  0.07088970  0.41121689  0.44747166     0.86980
O1454       O  0.03175988  0.37980203  0.37090392    -0.76120
O1455       O  0.00747131  0.38229778  0.45069137    -0.88880
O1456       O  0.03531400  0.47478208  0.43467620    -0.81690
C1457       C  0.97577826  0.44106398  0.46771964     0.92160
C1458       C  0.95446563  0.36258994  0.43868962     0.92010
Mg1459     Mg  0.06273293  0.43380123  0.40085923     1.57950
O1460       O  0.10296667  0.42745048  0.39641568    -0.81610
O1461       O  0.02504787  0.44194781  0.39612430    -0.75850
O1462       O  0.98029001  0.42040149  0.46855704    -0.81690
O1463       O  0.99758629  0.31076650  0.43439509    -0.83400
O1464       O  0.07985369  0.35778201  0.36963111    -0.81720
C1465       C  0.00787954  0.43696917  0.40783217     0.86440
O1466       O  0.05627817  0.39952420  0.39074582    -0.88870
O1467       O  0.05885802  0.42474662  0.43677842    -0.88970
O1468       O  0.07839128  0.39282647  0.43886940    -0.76030
Mg1469     Mg  0.98215258  0.40479033  0.43493276     1.57970
O1470       O  0.99207263  0.45500250  0.46477782    -0.83400
H1471       H  0.98641433  0.36300838  0.37877075    -0.07130
O1472       O  0.05034443  0.35438098  0.41361366    -0.88670
H1473       H  0.07175263  0.33581720  0.43199743    -0.06950
H1474       H  0.04302808  0.41088489  0.36183048    -0.07130
C1475       C  0.05480531  0.34232529  0.42987637     0.86420
C1476       C  0.98969487  0.36920696  0.39564996     0.87010
C1477       C  0.04394366  0.39726818  0.37397903     0.87050
H1478       H  0.07488105  0.41496441  0.46491809    -0.07110
O1479       O  0.02346978  0.40694256  0.47335179    -0.76130
Mg1480     Mg  0.07805704  0.37397325  0.40419796     1.58000
H1481       H  0.01594720  0.37468345  0.48254233    -0.07120
C1482       C  0.00669486  0.29951339  0.41845755     0.92040
O1483       O  0.05221380  0.33320462  0.36307939    -0.83360
C1484       C  0.07023012  0.34333522  0.35713871     0.92100
O1485       O  0.95096992  0.38333974  0.44231826    -0.83350
Mg1486     Mg  0.02807687  0.43998484  0.45255388     1.58180
O1487       O  0.01882583  0.30875939  0.40295511    -0.81680
O1488       O  0.06556085  0.47125405  0.41188124    -0.83380
O1489       O  0.00833120  0.21666173  0.40871934    -0.88960
C1490       C  0.99424299  0.18740084  0.46971822     0.87070
Mg1491     Mg  0.98359520  0.22927604  0.38816216     1.58150
O1492       O  0.00001626  0.14866412  0.42586826    -0.88690
O1493       O  0.02753573  0.18579022  0.40145225    -0.76020
C1494       C  0.89527906  0.16386133  0.38964234     0.92120
O1495       O  0.96991285  0.23609348  0.44475714    -0.75840
O1496       O  0.90142090  0.18387562  0.39277202    -0.83340
Mg1497     Mg  0.00714649  0.22742111  0.44443480     1.57960
C1498       C  0.95948488  0.09112695  0.42278457     0.92040
O1499       O  0.04329764  0.22261051  0.45252607    -0.81610
H1500       H  0.01869112  0.13186523  0.40325896    -0.06950
C1501       C  0.93896925  0.16342570  0.44781954     0.86980
O1502       O  0.97834312  0.19445835  0.37121926    -0.76120
O1503       O  0.00248257  0.19227015  0.45109880    -0.88880
O1504       O  0.97469036  0.09989685  0.43543714    -0.81690
C1505       C  0.03391864  0.13343683  0.46836991     0.92160
C1506       C  0.05550257  0.21189799  0.43900568     0.92010
Mg1507     Mg  0.94729639  0.14059293  0.40136117     1.57950
O1508       O  0.90707715  0.14690465  0.39687889    -0.81610
O1509       O  0.98499089  0.13245849  0.39675066    -0.75850
O1510       O  0.02956448  0.15414181  0.46913607    -0.81690
O1511       O  0.01239324  0.26371903  0.43448821    -0.83400
O1512       O  0.93031007  0.21647921  0.36965553    -0.81720
C1513       C  0.00211846  0.13746563  0.40849673     0.86440
O1514       O  0.95376015  0.17482972  0.39109132    -0.88870
O1515       O  0.95104828  0.14986085  0.43722919    -0.88970
O1516       O  0.93149126  0.18177720  0.43910837    -0.76030
Mg1517     Mg  0.02779748  0.16968994  0.43546494     1.57970
O1518       O  0.01753128  0.11959543  0.46559062    -0.83400
H1519       H  0.02361208  0.21122774  0.37909611    -0.07130
O1520       O  0.95964590  0.22008295  0.41375038    -0.88670
H1521       H  0.93822361  0.23868655  0.43207258    -0.06950
H1522       H  0.96707953  0.16334618  0.36225907    -0.07130
C1523       C  0.95517131  0.23216833  0.42998430     0.86420
C1524       C  0.02031274  0.20510882  0.39600511     0.87010
C1525       C  0.96614086  0.17701125  0.37434424     0.87050
H1526       H  0.93491712  0.15974686  0.46526971    -0.07110
O1527       O  0.98633838  0.16778378  0.47384667    -0.76130
Mg1528     Mg  0.93195599  0.20045281  0.40433844     1.58000
H1529       H  0.99395696  0.20005376  0.48289353    -0.07120
C1530       C  0.00332471  0.27492364  0.41849255     0.92040
O1531       O  0.95798398  0.24103365  0.36311422    -0.83360
C1532       C  0.93999842  0.23087509  0.35713766     0.92100
O1533       O  0.05899093  0.19116353  0.44275609    -0.83350
Mg1534     Mg  0.98172947  0.13468177  0.45318749     1.58180
O1535       O  0.99123768  0.26562973  0.40299109    -0.81680
O1536       O  0.94452173  0.10314519  0.41252538    -0.83380
O1537       O  0.55980877  0.64886209  0.43784989    -0.88960
C1538       C  0.54510202  0.67629958  0.37499365     0.87070
Mg1539     Mg  0.52894168  0.63367821  0.45353464     1.58150
O1540       O  0.55142198  0.71924303  0.41458659    -0.88690
O1541       O  0.57938636  0.68076548  0.43995542    -0.76020
C1542       C  0.45538134  0.71104043  0.43921265     0.92120
O1543       O  0.52611564  0.63162346  0.39711044    -0.75840
O1544       O  0.45190036  0.69029564  0.44290763    -0.83340
Mg1545     Mg  0.56379239  0.63974385  0.40196235     1.57960
C1546       C  0.50773227  0.77423054  0.41910948     0.92040
O1547       O  0.60406375  0.64605761  0.39761490    -0.81610
H1548       H  0.57275918  0.73779151  0.43307227    -0.06950
C1549       C  0.49081701  0.70444188  0.39638659     0.86980
O1550       O  0.52426956  0.66676343  0.47424073    -0.76120
O1551       O  0.55740464  0.67403458  0.39178344    -0.88880
O1552       O  0.51993204  0.76495002  0.40368533    -0.81690
C1553       C  0.57145428  0.73021308  0.35814717     0.92160
C1554       C  0.61591465  0.66304964  0.39052090     0.92010
Mg1555     Mg  0.50372034  0.72660896  0.44494408     1.57950
O1556       O  0.46751083  0.72176438  0.45279745    -0.81610
O1557       O  0.54096546  0.73526251  0.44552243    -0.75850
O1558       O  0.58104100  0.71576790  0.37067301    -0.81690
O1559       O  0.56650347  0.60226758  0.41306276    -0.83400
O1560       O  0.48106352  0.65325263  0.46928906    -0.81720
C1561       C  0.55581114  0.73130527  0.43086125     0.86440
O1562       O  0.50832666  0.69139995  0.45151955    -0.88870
O1563       O  0.50273955  0.71594501  0.40920492    -0.88970
O1564       O  0.48357239  0.68509173  0.40171482    -0.76030
Mg1565     Mg  0.57916149  0.69959775  0.40525743     1.57970
O1566       O  0.55345080  0.74037297  0.36404312    -0.83400
H1567       H  0.57577493  0.65864533  0.46602072    -0.07130
O1568       O  0.51091523  0.64781388  0.42614189    -0.88670
H1569       H  0.49236678  0.63107146  0.40338350    -0.06950
H1570       H  0.51672486  0.69902129  0.48338628    -0.07130
C1571       C  0.50891198  0.63664592  0.40873949     0.86420
C1572       C  0.57183355  0.66238704  0.44855933     0.87010
C1573       C  0.51646120  0.68642657  0.47015515     0.87050
H1574       H  0.48760740  0.71062909  0.37948688    -0.07110
O1575       O  0.53295967  0.69378356  0.37187480    -0.76130
Mg1576     Mg  0.48309985  0.66886155  0.43566909     1.58000
H1577       H  0.54418231  0.66267870  0.36285724    -0.07120
C1578       C  0.55152792  0.59015837  0.42321439     0.92040
O1579       O  0.49290450  0.61866671  0.46563643    -0.83360
C1580       C  0.47658029  0.63257977  0.46845652     0.92100
O1581       O  0.60976446  0.68304689  0.39373880    -0.83350
Mg1582     Mg  0.52765286  0.72857614  0.38886475     1.58180
O1583       O  0.53616662  0.59885059  0.43575306    -0.81680
O1584       O  0.49855634  0.76298952  0.43503350    -0.83380
O1585       O  0.45190072  0.92410532  0.43732130    -0.88960
C1586       C  0.46703691  0.89666770  0.37455664     0.87070
Mg1587     Mg  0.48263146  0.93941148  0.45310646     1.58150
O1588       O  0.46060019  0.85371959  0.41414714    -0.88690
O1589       O  0.43243119  0.89212766  0.43934538    -0.76020
C1590       C  0.55644629  0.86217320  0.43914995     0.92120
O1591       O  0.48570775  0.94150189  0.39669162    -0.75840
O1592       O  0.55987550  0.88294159  0.44275675    -0.83340
Mg1593     Mg  0.44805445  0.93320482  0.40141835     1.57960
C1594       C  0.50434266  0.79884265  0.41905084     0.92040
O1595       O  0.40785374  0.92676786  0.39701092    -0.81610
H1596       H  0.43920415  0.83514519  0.43255389    -0.06950
C1597       C  0.52121053  0.86865582  0.39618514     0.86980
O1598       O  0.48734884  0.90634977  0.47384993    -0.76120
O1599       O  0.45464581  0.89892099  0.39128664    -0.88880
O1600       O  0.49221755  0.80806990  0.40353112    -0.81690
C1601       C  0.44090093  0.84267777  0.35760596     0.92160
C1602       C  0.39610839  0.90976456  0.38980427     0.92010
Mg1603     Mg  0.50814074  0.84652862  0.44474937     1.57950
O1604       O  0.54429058  0.85148765  0.45274904    -0.81610
O1605       O  0.47091866  0.83777767  0.44517251    -0.75850
O1606       O  0.43123301  0.85713159  0.37005548    -0.81690
O1607       O  0.44507411  0.97064870  0.41249800    -0.83400
O1608       O  0.53050350  0.91997241  0.46900642    -0.81720
C1609       C  0.45614779  0.84167072  0.43042167     0.86440
O1610       O  0.50341153  0.88173627  0.45120204    -0.88870
O1611       O  0.50929176  0.85711669  0.40898632    -0.88970
O1612       O  0.52833560  0.88805416  0.40148810    -0.76030
Mg1613     Mg  0.43288231  0.87329985  0.40465350     1.57970
O1614       O  0.45886845  0.83252575  0.36362829    -0.83400
H1615       H  0.43584758  0.91424651  0.46542543    -0.07130
O1616       O  0.50082018  0.92533139  0.42577802    -0.88670
H1617       H  0.51942525  0.94216340  0.40311701    -0.06950
H1618       H  0.49495132  0.87412034  0.48305910    -0.07130
C1619       C  0.50287275  0.93652546  0.40839298     0.86420
C1620       C  0.43988030  0.91052873  0.44798133     0.87010
C1621       C  0.49521627  0.88670410  0.46981052     0.87050
H1622       H  0.52451250  0.86245476  0.37931051    -0.07110
O1623       O  0.47920884  0.87919076  0.37150239    -0.76130
Mg1624     Mg  0.52864489  0.90432189  0.43541006     1.58000
H1625       H  0.46799826  0.91028532  0.36241244    -0.07120
C1626       C  0.45986730  0.98286497  0.42276956     0.92040
O1627       O  0.51857618  0.95452965  0.46529953    -0.83360
C1628       C  0.53493118  0.94065681  0.46814880     0.92100
O1629       O  0.40232070  0.88977918  0.39297232    -0.83350
Mg1630     Mg  0.48451044  0.84440677  0.38856333     1.58180
O1631       O  0.47525976  0.97426711  0.43534393    -0.81680
O1632       O  0.51343013  0.81013700  0.43497918    -0.83380
O1633       O  0.95148303  0.64872184  0.58796502    -0.88960
C1634       C  0.96635412  0.67623795  0.65076045     0.87070
Mg1635     Mg  0.98229820  0.63346333  0.57222870     1.58150
O1636       O  0.95998826  0.71912535  0.61110182    -0.88690
O1637       O  0.93193879  0.68063706  0.58586375    -0.76020
C1638       C  0.05595105  0.71084110  0.58624152     0.92120
O1639       O  0.98522873  0.63150727  0.62865396    -0.75840
O1640       O  0.05941349  0.69009057  0.58258223    -0.83340
Mg1641     Mg  0.94755100  0.63967015  0.62388344     1.57960
C1642       C  0.00370559  0.77405912  0.60632794     0.92040
O1643       O  0.90729286  0.64602189  0.62834417    -0.81610
H1644       H  0.93862619  0.73764989  0.59262443    -0.06950
C1645       C  0.02060152  0.70428236  0.62917104     0.86980
O1646       O  0.98697704  0.66651470  0.55144899    -0.76120
O1647       O  0.95402034  0.67396187  0.63399543    -0.88880
O1648       O  0.99154477  0.76481116  0.62181107    -0.81690
C1649       C  0.94008236  0.73018543  0.66757259     0.92160
C1650       C  0.89547653  0.66303373  0.63542254     0.92010
Mg1651     Mg  0.00761419  0.72639603  0.58059507     1.57950
O1652       O  0.04379920  0.72154147  0.57265913    -0.81610
O1653       O  0.97037842  0.73506056  0.58008839    -0.75850
O1654       O  0.93046388  0.71572732  0.65508890    -0.81690
O1655       O  0.94471743  0.60220826  0.61284325    -0.83400
O1656       O  0.03018775  0.65301228  0.55629927    -0.81720
C1657       C  0.95557103  0.73115506  0.59480614     0.86440
O1658       O  0.00296839  0.69117787  0.57409973    -0.88870
O1659       O  0.00867363  0.71579366  0.61636365    -0.88970
O1660       O  0.02781531  0.68492559  0.62384757    -0.76030
Mg1661     Mg  0.93225491  0.69951583  0.62053174     1.57970
O1662       O  0.95808564  0.74033261  0.66162268    -0.83400
H1663       H  0.93547452  0.65850083  0.55981465    -0.07130
O1664       O  0.00040922  0.64761179  0.59954868    -0.88670
H1665       H  0.01896396  0.63088358  0.62231316    -0.06950
H1666       H  0.99453466  0.69875823  0.54222978    -0.07130
C1667       C  0.00242089  0.63647596  0.61697611     0.86420
C1668       C  0.93945556  0.66225003  0.57726372     0.87010
C1669       C  0.99480465  0.68618200  0.55548538     0.87050
H1670       H  0.02384824  0.71047223  0.64606014    -0.07110
O1671       O  0.97852076  0.69371924  0.65382876    -0.76130
Mg1672     Mg  0.02821752  0.66865467  0.58991952     1.58000
H1673       H  0.96727846  0.66263077  0.66291823    -0.07120
C1674       C  0.95959542  0.59002287  0.60266054     0.92040
O1675       O  0.01833481  0.61842908  0.56005594    -0.83360
C1676       C  0.03466035  0.63233758  0.55712066     0.92100
O1677       O  0.90165701  0.68301809  0.63216006    -0.83350
Mg1678     Mg  0.98382400  0.72847927  0.63674816     1.58180
O1679       O  0.97498611  0.59863636  0.59008234    -0.81680
O1680       O  0.01282744  0.76278895  0.59040442    -0.83380
O1681       O  0.05941505  0.92395194  0.58797502    -0.88960
C1682       C  0.04441623  0.89647865  0.65075288     0.87070
Mg1683     Mg  0.02867376  0.93920978  0.57215192     1.58150
O1684       O  0.05084227  0.85357048  0.61114665    -0.88690
O1685       O  0.07895365  0.89203153  0.58592174    -0.76020
C1686       C  0.95493437  0.86189260  0.58611939     0.92120
O1687       O  0.02556445  0.94116910  0.62859060    -0.75840
O1688       O  0.95147049  0.88264222  0.58243330    -0.83340
Mg1689     Mg  0.06325264  0.93303772  0.62388634     1.57960
C1690       C  0.00711728  0.79866638  0.60632552     0.92040
O1691       O  0.10350446  0.92669242  0.62834902    -0.81610
H1692       H  0.07223036  0.83504479  0.59270538    -0.06950
C1693       C  0.99020896  0.86845948  0.62908391     0.86980
O1694       O  0.02401206  0.90617260  0.55137592    -0.76120
O1695       O  0.05678277  0.89874549  0.63400641    -0.88880
O1696       O  0.01924272  0.80791292  0.62182896    -0.81690
C1697       C  0.07060462  0.84253867  0.66767137     0.92160
C1698       C  0.11531763  0.90968222  0.63544282     0.92010
Mg1699     Mg  0.00327033  0.84632825  0.58054562     1.57950
O1700       O  0.96709983  0.85118874  0.57255468    -0.81610
O1701       O  0.04050633  0.83766090  0.58011079    -0.75850
O1702       O  0.08026409  0.85698789  0.65519567    -0.81690
O1703       O  0.06602972  0.97053619  0.61286959    -0.83400
O1704       O  0.98077493  0.91978543  0.55618361    -0.81720
C1705       C  0.05528452  0.84154704  0.59485787     0.86440
O1706       O  0.00792752  0.88154386  0.57401745    -0.88870
O1707       O  0.00215465  0.85694100  0.61630352    -0.88970
O1708       O  0.98299870  0.88781015  0.62372850    -0.76030
Mg1709     Mg  0.07855766  0.87317738  0.62060501     1.57970
O1710       O  0.05261549  0.83239233  0.66168681    -0.83400
H1711       H  0.07548371  0.91417447  0.55985981    -0.07130
O1712       O  0.01045902  0.92509142  0.59944258    -0.88670
H1713       H  0.99184740  0.94180053  0.62217004    -0.06950
H1714       H  0.01641048  0.87394270  0.54216750    -0.07130
C1715       C  0.00840432  0.93621502  0.61686782     0.86420
C1716       C  0.07146450  0.91042369  0.57730286     0.87010
C1717       C  0.01613499  0.88652277  0.55541239     0.87050
H1718       H  0.98693515  0.86227850  0.64597531    -0.07110
O1719       O  0.03223217  0.87900605  0.65381240    -0.76130
Mg1720     Mg  0.98266033  0.90408163  0.58979241     1.58000
H1721       H  0.04347695  0.91008817  0.66290006    -0.07120
C1722       C  0.05110241  0.98265233  0.60266896     0.92040
O1723       O  0.99278679  0.95432402  0.55988134    -0.83360
C1724       C  0.97640422  0.94048632  0.55700951     0.92100
O1725       O  0.10912652  0.88969489  0.63223050    -0.83350
Mg1726     Mg  0.02694473  0.84424510  0.63675031     1.58180
O1727       O  0.03582929  0.97397703  0.59001848    -0.81680
O1728       O  0.99803523  0.80993724  0.59037612    -0.83380
O1729       O  0.60957168  0.53986077  0.33372823    -0.88960
C1730       C  0.54861833  0.52619224  0.36324722     0.87070
Mg1731     Mg  0.62982172  0.51494510  0.32101195     1.58150
O1732       O  0.59266400  0.53149084  0.40186582    -0.88690
O1733       O  0.61717251  0.55887674  0.36464192    -0.76020
C1734       C  0.62797521  0.42650286  0.38633242     0.92120
O1735       O  0.57312303  0.50176888  0.31436977    -0.75840
O1736       O  0.62481140  0.43273784  0.36635037    -0.83340
Mg1737     Mg  0.57381604  0.53898320  0.32311325     1.57960
C1738       C  0.59543411  0.49066848  0.45939402     0.92040
O1739       O  0.56608570  0.57518657  0.32807882    -0.81610
H1740       H  0.61546413  0.54993484  0.41867135    -0.06950
C1741       C  0.57007023  0.47068443  0.38711138     0.86980
O1742       O  0.64684076  0.50950086  0.35578358    -0.76120
O1743       O  0.56728447  0.53428227  0.35830083    -0.88880
O1744       O  0.58294369  0.50609223  0.45074713    -0.81690
C1745       C  0.55046460  0.56587458  0.41718041     0.92160
C1746       C  0.57974192  0.58724975  0.33878894     0.92010
Mg1747     Mg  0.61668654  0.47855343  0.40977519     1.57950
O1748       O  0.62088551  0.43830169  0.40335018    -0.81610
O1749       O  0.62165712  0.51617853  0.41801827    -0.75850
O1750       O  0.54962182  0.56145818  0.39649777    -0.81690
O1751       O  0.58366205  0.54421697  0.28673406    -0.83400
O1752       O  0.64794900  0.46151857  0.33368907    -0.81720
C1753       C  0.61006919  0.53342096  0.41304604     0.86440
O1754       O  0.62688276  0.48504524  0.37549479    -0.88870
O1755       O  0.58080862  0.48264812  0.40066608    -0.88970
O1756       O  0.57865779  0.46316982  0.36871604    -0.76030
Mg1757     Mg  0.58323161  0.55939314  0.38089168     1.57970
O1758       O  0.55321982  0.54950262  0.43105628    -0.83400
H1759       H  0.63934503  0.55489662  0.33905324    -0.07130
O1760       O  0.60406233  0.49120265  0.33031533    -0.88670
H1761       H  0.58549153  0.46995995  0.31174419    -0.06950
H1762       H  0.65585149  0.49817879  0.38686203    -0.07130
C1763       C  0.58775542  0.48688273  0.31826779     0.86420
C1764       C  0.62244409  0.55170524  0.34525441     0.87010
C1765       C  0.64370189  0.49732115  0.37324687     0.87050
H1766       H  0.55259958  0.46676234  0.39084327    -0.07110
O1767       O  0.54450525  0.51832809  0.38288452    -0.76130
Mg1768     Mg  0.61335605  0.46339608  0.34987679     1.58000
H1769       H  0.53538587  0.52601513  0.35065016    -0.07120
C1770       C  0.59951668  0.53499464  0.27544675     0.92040
O1771       O  0.65456502  0.48915503  0.30911650    -0.83360
C1772       C  0.66046468  0.47113312  0.31924325     0.92100
O1773       O  0.57611718  0.59069224  0.35954909    -0.83350
Mg1774     Mg  0.56520715  0.51349107  0.41594224     1.58180
O1775       O  0.61493729  0.52275393  0.28467972    -0.81680
O1776       O  0.60557014  0.47573154  0.44723996    -0.83380
O1777       O  0.60933350  0.53341461  0.19252348    -0.88960
C1778       C  0.54833491  0.54722815  0.16312307     0.87070
Mg1779     Mg  0.62975947  0.55824271  0.20518141     1.58150
O1780       O  0.59230631  0.54168847  0.12444967    -0.88690
O1781       O  0.61672301  0.51427062  0.16163767    -0.76020
C1782       C  0.62820324  0.64656825  0.13976629     0.92120
O1783       O  0.57310564  0.57165748  0.21191785    -0.75840
O1784       O  0.62502836  0.64040933  0.15977104    -0.83340
Mg1785     Mg  0.57360173  0.53442573  0.20323797     1.57960
C1786       C  0.59531474  0.58237131  0.06691961     0.92040
O1787       O  0.56566405  0.49823957  0.19836709    -0.81610
H1788       H  0.61502278  0.52313056  0.10766669    -0.06950
C1789       C  0.57007440  0.60263848  0.13919394     0.86980
O1790       O  0.64674230  0.56356883  0.17038281    -0.76120
O1791       O  0.56697255  0.53907304  0.16804632    -0.88880
O1792       O  0.58272309  0.56705701  0.07561858    -0.81690
C1793       C  0.54993965  0.50751967  0.10914285     0.92160
C1794       C  0.57921531  0.48611455  0.18759969     0.92010
Mg1795     Mg  0.61662261  0.59452512  0.11645858     1.57950
O1796       O  0.62101788  0.63476256  0.12279315    -0.81610
O1797       O  0.62138722  0.55685858  0.10829080    -0.75850
O1798       O  0.54912158  0.51189199  0.12984198    -0.81690
O1799       O  0.58354435  0.52921222  0.23960293    -0.83400
O1800       O  0.64809533  0.61158091  0.19239417    -0.81720
C1801       C  0.60970675  0.53967329  0.11327355     0.86440
O1802       O  0.62682997  0.58806960  0.15071320    -0.88870
O1803       O  0.58073662  0.59060425  0.12564386    -0.88970
O1804       O  0.57872549  0.61015772  0.15755749    -0.76030
Mg1805     Mg  0.58274986  0.51385724  0.14545414     1.57970
O1806       O  0.55273911  0.52391247  0.09530156    -0.83400
H1807       H  0.63902996  0.51827797  0.18709939    -0.07130
O1808       O  0.60408739  0.58208740  0.19593733    -0.88670
H1809       H  0.58562808  0.60341541  0.21451314    -0.06950
H1810       H  0.65572931  0.57485239  0.13928142    -0.07130
C1811       C  0.58780944  0.58647884  0.20800003     0.86420
C1812       C  0.62211424  0.52150510  0.18096781     0.87010
C1813       C  0.64361267  0.57575122  0.15292560     0.87050
H1814       H  0.55261530  0.60662101  0.13548686    -0.07110
O1815       O  0.54423519  0.55510165  0.14348840    -0.76130
Mg1816     Mg  0.61346034  0.60982426  0.17631497     1.58000
H1817       H  0.53511706  0.54745871  0.17573877    -0.07120
C1818       C  0.59948334  0.53836216  0.25083627     0.92040
O1819       O  0.65467599  0.58394710  0.21697298    -0.83360
C1820       C  0.66062120  0.60193534  0.20680008     0.92100
O1821       O  0.57546311  0.48264705  0.16686645    -0.83350
Mg1822     Mg  0.56494376  0.55983164  0.11041045     1.58180
O1823       O  0.61493718  0.55053071  0.24155193    -0.81680
O1824       O  0.60551367  0.59731603  0.07901123    -0.83380
O1825       O  0.75876252  0.68334246  0.08341045    -0.88960
C1826       C  0.74488296  0.74418719  0.11305935     0.87070
Mg1827     Mg  0.73388675  0.66290691  0.07087052     1.58150
O1828       O  0.75074645  0.70012421  0.15158704    -0.88690
O1829       O  0.77807489  0.67588840  0.11417500    -0.76020
C1830       C  0.64583947  0.66419589  0.13670360     0.92120
O1831       O  0.72033014  0.71953233  0.06426857    -0.75840
O1832       O  0.65190903  0.66745992  0.11668630    -0.83340
Mg1833     Mg  0.75760264  0.71909397  0.07278238     1.57960
C1834       C  0.71033676  0.69684531  0.20939031     0.92040
O1835       O  0.79380186  0.72708711  0.07748019    -0.81610
H1836       H  0.76944483  0.67740302  0.16821301    -0.06950
C1837       C  0.68971045  0.72233565  0.13727799     0.86980
O1838       O  0.72876917  0.64585791  0.10566322    -0.76120
O1839       O  0.75308732  0.72560121  0.10802245    -0.88880
O1840       O  0.72561459  0.70948293  0.20067177    -0.81690
C1841       C  0.78491971  0.74256712  0.16676738     0.92160
C1842       C  0.80602154  0.71353968  0.08814829     0.92010
Mg1843     Mg  0.69799503  0.67571531  0.15981879     1.57950
O1844       O  0.65773249  0.67128621  0.15365609    -0.81610
O1845       O  0.73571899  0.67099219  0.16778452    -0.75850
O1846       O  0.78038221  0.74341649  0.14610733    -0.81690
O1847       O  0.76268022  0.70924367  0.03637591    -0.83400
O1848       O  0.68059626  0.64451959  0.08387373    -0.81720
C1849       C  0.75285863  0.68270383  0.16271470     0.86440
O1850       O  0.70430593  0.66564847  0.12550105    -0.88870
O1851       O  0.70180051  0.71163498  0.15075101    -0.88970
O1852       O  0.68214237  0.71375154  0.11890445    -0.76030
Mg1853     Mg  0.77845140  0.70981558  0.13044611     1.57970
O1854       O  0.76865067  0.73964311  0.18073035    -0.83400
H1855       H  0.77404725  0.65368661  0.08862695    -0.07130
O1856       O  0.71005751  0.68853015  0.08030185    -0.88670
H1857       H  0.68858403  0.70694190  0.06184046    -0.06950
H1858       H  0.71766490  0.63675995  0.13679534    -0.07130
C1859       C  0.70556144  0.70479858  0.06826488     0.86420
C1860       C  0.77078454  0.67055988  0.09484800     0.87010
C1861       C  0.71666174  0.64890785  0.12318479     0.87050
H1862       H  0.68572855  0.73977727  0.14105916    -0.07110
O1863       O  0.73712093  0.74819319  0.13275991    -0.76130
Mg1864     Mg  0.68241853  0.67908769  0.10004055     1.58000
H1865       H  0.74451711  0.75744539  0.10048828    -0.07120
C1866       C  0.75354269  0.69328176  0.02516692     0.92040
O1867       O  0.70813251  0.63797822  0.05917898    -0.83360
C1868       C  0.69017694  0.63202315  0.06940549     0.92100
O1869       O  0.80954814  0.71722152  0.10888652    -0.83350
Mg1870     Mg  0.73264257  0.72740054  0.16584017     1.58180
O1871       O  0.74143678  0.67779723  0.03448605    -0.81680
O1872       O  0.69535880  0.68667689  0.19731387    -0.83380
O1873       O  0.75171564  0.68308375  0.94232522    -0.88960
C1874       C  0.76556653  0.74388420  0.91254836     0.87070
Mg1875     Mg  0.77658608  0.66272104  0.95496479     1.58150
O1876       O  0.75984277  0.69976021  0.87407335    -0.88690
O1877       O  0.73250770  0.67551426  0.91152040    -0.76020
C1878       C  0.86465727  0.66390427  0.88918733     0.92120
O1879       O  0.79009858  0.71937131  0.96140083    -0.75840
O1880       O  0.85857307  0.66715914  0.90919907    -0.83340
Mg1881     Mg  0.75283555  0.71886655  0.95283885     1.57960
C1882       C  0.80043781  0.69664327  0.81634171     0.92040
O1883       O  0.71664050  0.72679449  0.94804880    -0.81610
H1884       H  0.74117391  0.67704053  0.85740802    -0.06950
C1885       C  0.82084580  0.72206814  0.88847644     0.86980
O1886       O  0.78175491  0.64559553  0.92020984    -0.76120
O1887       O  0.75739854  0.72528029  0.91759788    -0.88880
O1888       O  0.78512149  0.70924154  0.82502196    -0.81690
C1889       C  0.72566256  0.74202561  0.85875484     0.92160
C1890       C  0.70446252  0.71317458  0.93742406     0.92010
Mg1891     Mg  0.81258937  0.67543383  0.86597780     1.57950
O1892       O  0.85282257  0.67106691  0.87222639    -0.81610
O1893       O  0.77489881  0.67064880  0.85790928    -0.75850
O1894       O  0.73015554  0.74295558  0.87942013    -0.81690
O1895       O  0.74771722  0.70913537  0.98926863    -0.83400
O1896       O  0.82984242  0.64430651  0.94202971    -0.81720
C1897       C  0.75774989  0.68234674  0.86294100     0.86440
O1898       O  0.80619821  0.66538609  0.90031849    -0.88870
O1899       O  0.80876130  0.71135462  0.87500960    -0.88970
O1900       O  0.82839724  0.71349697  0.90686543    -0.76030
Mg1901     Mg  0.73209464  0.70940570  0.89516834     1.57970
O1902       O  0.74197304  0.73919329  0.84482919    -0.83400
H1903       H  0.73651085  0.65337499  0.93713536    -0.07130
O1904       O  0.80041387  0.68834084  0.94547681    -0.88670
H1905       H  0.82185287  0.70683261  0.96390099    -0.06950
H1906       H  0.79285634  0.63646018  0.88909176    -0.07130
C1907       C  0.80488465  0.70464863  0.95746522     0.86420
C1908       C  0.73975503  0.67024568  0.93088181     0.87010
C1909       C  0.79385077  0.64863488  0.90267260     0.87050
H1910       H  0.82484301  0.73950543  0.88467290    -0.07110
O1911       O  0.77336216  0.74788821  0.89286082    -0.76130
Mg1912     Mg  0.82806677  0.67885198  0.92578805     1.58000
H1913       H  0.76587310  0.75715798  0.92509757    -0.07120
C1914       C  0.75687141  0.69323337  0.00054733     0.92040
O1915       O  0.80233091  0.63784128  0.96677670    -0.83360
C1916       C  0.82026875  0.63185038  0.95654850     0.92100
O1917       O  0.70094838  0.71677548  0.91666804    -0.83350
Mg1918     Mg  0.77795181  0.72707634  0.85983323     1.58180
O1919       O  0.76899435  0.67773125  0.99129555    -0.81680
O1920       O  0.81533143  0.68640995  0.82846752    -0.83380
O1921       O  0.40162326  0.03301861  0.33314963    -0.88960
C1922       C  0.46228758  0.04721972  0.36311369     0.87070
Mg1923     Mg  0.38114868  0.05778148  0.32042744     1.58150
O1924       O  0.41808295  0.04117559  0.40147220    -0.88690
O1925       O  0.39413514  0.01374757  0.36394973    -0.76020
C1926       C  0.38183401  0.14590598  0.38613040     0.92120
O1927       O  0.43777388  0.07160502  0.31411693    -0.75840
O1928       O  0.38518623  0.13979647  0.36614510    -0.83340
Mg1929     Mg  0.43745018  0.03435563  0.32272098     1.57960
C1930       C  0.41444261  0.08180762  0.45916134     0.92040
O1931       O  0.44561742  0.99822278  0.32751550    -0.81610
H1932       H  0.39534097  0.02241184  0.41801787    -0.06950
C1933       C  0.44010780  0.10226125  0.38709130     0.86980
O1934       O  0.36388109  0.06289054  0.35511521    -0.76120
O1935       O  0.44374802  0.03895175  0.35799634    -0.88880
O1936       O  0.42717206  0.06652701  0.45058948    -0.81690
C1937       C  0.46065609  0.00720097  0.41686070     0.92160
C1938       C  0.43205869  0.98595624  0.33812194     0.92010
Mg1939     Mg  0.39340740  0.09382999  0.40940752     1.57950
O1940       O  0.38886232  0.13406141  0.40314340    -0.81610
O1941       O  0.38879031  0.05610411  0.41744720    -0.75850
O1942       O  0.46154913  0.01174112  0.39620015    -0.81690
O1943       O  0.42783630  0.02916153  0.28627233    -0.83400
O1944       O  0.36253763  0.11102539  0.33321518    -0.81720
C1945       C  0.40060596  0.03900906  0.41250249     0.86440
O1946       O  0.38351597  0.08741347  0.37503891    -0.88870
O1947       O  0.42939329  0.09016117  0.40055295    -0.88970
O1948       O  0.43157195  0.10975435  0.36866222    -0.76030
Mg1949     Mg  0.42799343  0.01351878  0.38038131     1.57970
O1950       O  0.45755909  0.02345620  0.43080049    -0.83400
H1951       H  0.37198902  0.01765839  0.33833202    -0.07130
O1952       O  0.40663689  0.08172195  0.32995780    -0.88670
H1953       H  0.42502475  0.10326693  0.31153843    -0.06950
H1954       H  0.35459318  0.07398384  0.38618921    -0.07130
C1955       C  0.42293971  0.08629136  0.31799318     0.86420
C1956       C  0.38883897  0.02098827  0.34459136     0.87010
C1957       C  0.36681351  0.07501088  0.37264506     0.87050
H1958       H  0.45752055  0.10632003  0.39093377    -0.07110
O1959       O  0.46618137  0.05499191  0.38282984    -0.76130
Mg1960     Mg  0.39700582  0.10932770  0.34961073     1.58000
H1961       H  0.47560311  0.04762704  0.35060592    -0.07120
C1962       C  0.41188192  0.03816702  0.27494933     0.92040
O1963       O  0.35619527  0.08344404  0.30852530    -0.83360
C1964       C  0.35015261  0.10141014  0.31867126     0.92100
O1965       O  0.43565048  0.98245542  0.35888087    -0.83350
Mg1966     Mg  0.44522612  0.05942588  0.41580739     1.58180
O1967       O  0.39628326  0.05020700  0.28414747    -0.81680
O1968       O  0.40419958  0.09661529  0.44693976    -0.83380
O1969       O  0.40209412  0.03979879  0.19207314    -0.88960
C1970       C  0.46301468  0.02589759  0.16250345     0.87070
Mg1971     Mg  0.38161828  0.01496774  0.20468187     1.58150
O1972       O  0.41899203  0.03167927  0.12392511    -0.88690
O1973       O  0.39471316  0.05905687  0.16125034    -0.76020
C1974       C  0.38308480  0.92676295  0.13907524     0.92120
O1975       O  0.43826115  0.00140803  0.21134228    -0.75840
O1976       O  0.38628653  0.93288627  0.15908278    -0.83340
Mg1977     Mg  0.43784812  0.03865586  0.20273069     1.57960
C1978       C  0.41575454  0.99113283  0.06628403     0.92040
O1979       O  0.44588310  0.07483144  0.19796395    -0.81610
H1980       H  0.39625510  0.05031875  0.10725478    -0.06950
C1981       C  0.44116426  0.97067983  0.13847544     0.86980
O1982       O  0.36460604  0.00975465  0.16989454    -0.76120
O1983       O  0.44440946  0.03408522  0.16750029    -0.88880
O1984       O  0.42838857  0.00642189  0.07496811    -0.81690
C1985       C  0.46146409  0.06578310  0.10863328     0.92160
C1986       C  0.43234668  0.08702805  0.18725965     0.92010
Mg1987     Mg  0.39457566  0.97888725  0.11585943     1.57950
O1988       O  0.39018228  0.93863557  0.12210539    -0.81610
O1989       O  0.38985268  0.01659453  0.10780171    -0.75850
O1990       O  0.46228062  0.06134202  0.12932168    -0.81690
O1991       O  0.42796267  0.04381526  0.23911660    -0.83400
O1992       O  0.36326157  0.96162308  0.19183287    -0.81720
C1993       C  0.40156518  0.03375099  0.11280280     0.86440
O1994       O  0.38444360  0.98526005  0.15014781    -0.88870
O1995       O  0.43048089  0.98273250  0.12495515    -0.88970
O1996       O  0.43254905  0.96314623  0.15685495    -0.76030
Mg1997     Mg  0.42866334  0.05941807  0.14500478     1.57970
O1998       O  0.45856310  0.04945215  0.09474787    -0.83400
H1999       H  0.37243905  0.05504913  0.18674919    -0.07130
O2000       O  0.40724942  0.99111178  0.19535559    -0.88670
H2001       H  0.42564241  0.96968371  0.21388758    -0.06950
H2002       H  0.35555475  0.99856188  0.13878821    -0.07130
C2003       C  0.42351189  0.98664215  0.20740671     0.86420
C2004       C  0.38933320  0.05178692  0.18057559     0.87010
C2005       C  0.36768771  0.99760523  0.15241225     0.87050
H2006       H  0.45861615  0.96670125  0.13473108    -0.07110
O2007       O  0.46705383  0.01809219  0.14282962    -0.76130
Mg2008     Mg  0.39785316  0.96343517  0.17567701     1.58000
H2009       H  0.47625906  0.02558346  0.17508567    -0.07120
C2010       C  0.41196739  0.03474494  0.25034215     0.92040
O2011       O  0.35665870  0.98922907  0.21642757    -0.83360
C2012       C  0.35073873  0.97122788  0.20626639     0.92100
O2013       O  0.43606530  0.09053434  0.16652092    -0.83350
Mg2014     Mg  0.44628126  0.01351677  0.10976538     1.58180
O2015       O  0.39647511  0.02263361  0.24105102    -0.81680
O2016       O  0.40558503  0.97617254  0.07838805    -0.83380
O2017       O  0.32629379  0.64045272  0.51617080    -0.88960
C2018       C  0.35595204  0.57957047  0.50248087     0.87070
Mg2019     Mg  0.31367680  0.66074859  0.49123151     1.58150
O2020       O  0.39454046  0.62363997  0.50803823    -0.88690
O2021       O  0.35715588  0.64801311  0.53530376    -0.76020
C2022       C  0.37945103  0.65916462  0.40308912     0.92120
O2023       O  0.30710479  0.60408626  0.47792597    -0.75840
O2024       O  0.35943770  0.65598442  0.40922571    -0.83340
Mg2025     Mg  0.31569730  0.60469125  0.51517882     1.57960
C2026       C  0.45227126  0.62659647  0.46745040     0.92040
O2027       O  0.32052873  0.59687243  0.55139413    -0.81610
H2028       H  0.41125081  0.64639708  0.52661970    -0.06950
C2029       C  0.38006318  0.60117952  0.44714031     0.86980
O2030       O  0.34847922  0.67779272  0.48597364    -0.76120
O2031       O  0.35094050  0.59819856  0.51060217    -0.88880
O2032       O  0.44357433  0.61404213  0.48280599    -0.81690
C2033       C  0.40977398  0.58136985  0.54236505     0.92160
C2034       C  0.33123527  0.61048667  0.56350792     0.92010
Mg2035     Mg  0.40265953  0.64780607  0.45520800     1.57950
O2036       O  0.39641210  0.65204882  0.41495144    -0.81610
O2037       O  0.41074522  0.65269292  0.49287603    -0.75850
O2038       O  0.38910138  0.58051382  0.53788555    -0.81690
O2039       O  0.27924924  0.61450949  0.52028611    -0.83400
O2040       O  0.32662527  0.67899211  0.43789784    -0.81720
C2041       C  0.40570257  0.64104834  0.51006578     0.86440
O2042       O  0.36833024  0.65792033  0.46158037    -0.88870
O2043       O  0.39356801  0.61190948  0.45916950    -0.88970
O2044       O  0.36168114  0.60975397  0.43957843    -0.76030
Mg2045     Mg  0.37344473  0.61409610  0.53582438     1.57970
O2046       O  0.42370026  0.58417948  0.52604664    -0.83400
H2047       H  0.33159347  0.67019618  0.53125954    -0.07130
O2048       O  0.32310868  0.63504806  0.46748498    -0.88670
H2049       H  0.30462855  0.61652280  0.44612496    -0.06950
H2050       H  0.37961347  0.68686241  0.47483677    -0.07130
C2051       C  0.31107712  0.61874931  0.46308086     0.86420
C2052       C  0.33779536  0.65330136  0.52806627     0.87010
C2053       C  0.36600904  0.67470217  0.47388125     0.87050
H2054       H  0.38382555  0.58372341  0.44320451    -0.07110
O2055       O  0.37563329  0.57551926  0.49469405    -0.76130
Mg2056     Mg  0.34281646  0.64442440  0.43978490     1.58000
H2057       H  0.34337518  0.56631528  0.50221073    -0.07120
C2058       C  0.26798663  0.63039026  0.51106610     0.92040
O2059       O  0.30191419  0.68555052  0.46541785    -0.83360
C2060       C  0.31213527  0.69148517  0.44745497     0.92100
O2061       O  0.35198145  0.60682860  0.56700422    -0.83350
Mg2062     Mg  0.40872111  0.59625455  0.49002984     1.58180
O2063       O  0.27727389  0.64584161  0.49888634    -0.81680
O2064       O  0.44015717  0.63677806  0.45250965    -0.83380
O2065       O  0.18504106  0.64037563  0.50925248    -0.88960
C2066       C  0.15532352  0.57945661  0.52285345     0.87070
Mg2067     Mg  0.19764750  0.66066254  0.53420157     1.58150
O2068       O  0.11673929  0.62352533  0.51731370    -0.88690
O2069       O  0.15418828  0.64794293  0.49011073    -0.76020
C2070       C  0.13186876  0.65897019  0.62232056     0.92120
O2071       O  0.20419602  0.60397362  0.54750139    -0.75840
O2072       O  0.15187728  0.65577799  0.61618619    -0.83340
Mg2073     Mg  0.19562838  0.60461644  0.51024567     1.57960
C2074       C  0.05898605  0.62636912  0.55801301     0.92040
O2075       O  0.19083467  0.59682676  0.47403148    -0.81610
H2076       H  0.10003290  0.64631680  0.49877137    -0.06950
C2077       C  0.13122980  0.60099394  0.57819909     0.86980
O2078       O  0.16284242  0.67767898  0.53945677    -0.76120
O2079       O  0.16036205  0.59810307  0.51477612    -0.88880
O2080       O  0.06764910  0.61386504  0.54259846    -0.81690
C2081       C  0.10152587  0.58127143  0.48288002     0.92160
C2082       C  0.18015280  0.61045527  0.46191352     0.92010
Mg2083     Mg  0.10864102  0.64761896  0.57019406     1.57950
O2084       O  0.11489985  0.65186380  0.61045909    -0.81610
O2085       O  0.10054721  0.65254388  0.53252519    -0.75850
O2086       O  0.12219705  0.58043373  0.48738426    -0.81690
O2087       O  0.23209119  0.61447211  0.50517362    -0.83400
O2088       O  0.18470804  0.67883792  0.58754947    -0.81720
C2089       C  0.10558446  0.64093642  0.51531536     0.86440
O2090       O  0.14297719  0.65776787  0.56382575    -0.88870
O2091       O  0.11771562  0.61172708  0.56618296    -0.88970
O2092       O  0.14960510  0.60958041  0.58577637    -0.76030
Mg2093     Mg  0.13788341  0.61402461  0.48953935     1.57970
O2094       O  0.08758694  0.58408635  0.49919268    -0.83400
H2095       H  0.17975832  0.67012769  0.49416696    -0.07130
O2096       O  0.18820838  0.63493083  0.55792963    -0.88670
H2097       H  0.20667395  0.61640143  0.57929966    -0.06950
H2098       H  0.13170155  0.68671770  0.55058011    -0.07130
C2099       C  0.20023203  0.61863341  0.56234043     0.86420
C2100       C  0.17355003  0.65322837  0.49735254     0.87010
C2101       C  0.14530484  0.67456460  0.55153610     0.87050
H2102       H  0.12747895  0.58352664  0.58211571    -0.07110
O2103       O  0.13562631  0.57539183  0.53060166    -0.76130
Mg2104     Mg  0.16849017  0.64426155  0.58562087     1.58000
H2105       H  0.16788765  0.56619615  0.52311308    -0.07120
C2106       C  0.24334491  0.63037157  0.51437875     0.92040
O2107       O  0.20941660  0.68543177  0.56002847    -0.83360
C2108       C  0.19920758  0.69134192  0.57799949     0.92100
O2109       O  0.15940612  0.60680839  0.45839115    -0.83350
Mg2110     Mg  0.10254016  0.59611128  0.53528613     1.58180
O2111       O  0.23404982  0.64581048  0.52654951    -0.81680
O2112       O  0.07114485  0.63654491  0.57292161    -0.83380
O2113       O  0.35917810  0.46609649  0.76625529    -0.88960
C2114       C  0.29814769  0.43680724  0.75252563     0.87070
Mg2115     Mg  0.37950727  0.47878645  0.74139086     1.58150
O2116       O  0.34206014  0.39803619  0.75778370    -0.88690
O2117       O  0.36668488  0.43512747  0.78522665    -0.76020
C2118       C  0.37762398  0.41353679  0.65297466     0.92120
O2119       O  0.32285410  0.48560680  0.72814942    -0.75840
O2120       O  0.37455602  0.43354009  0.65917912    -0.83340
Mg2121     Mg  0.32346015  0.47681551  0.76536013     1.57960
C2122       C  0.34463369  0.34057343  0.71696206     0.92040
O2123       O  0.31567151  0.47180890  0.80155098    -0.81610
H2124       H  0.36472355  0.38109368  0.77626671    -0.06950
C2125       C  0.31961880  0.41298103  0.69695584     0.86980
O2126       O  0.39642050  0.44395992  0.73594755    -0.76120
O2127       O  0.31682881  0.44166457  0.76062498    -0.88880
O2128       O  0.33214295  0.34929289  0.73233041    -0.81690
C2129       C  0.29993266  0.38271035  0.79201840     0.92160
C2130       C  0.32931532  0.46106770  0.81359773     0.92010
Mg2131     Mg  0.36611585  0.39009962  0.70491685     1.57950
O2132       O  0.37032195  0.39656528  0.66471546    -0.81610
O2133       O  0.37100674  0.38176328  0.74252534    -0.75850
O2134       O  0.29908134  0.40341829  0.78770319    -0.81690
O2135       O  0.33339948  0.51315186  0.77062973    -0.83400
O2136       O  0.39775252  0.46607033  0.68804173    -0.81720
C2137       C  0.35940061  0.38676655  0.75974515     0.86440
O2138       O  0.37642552  0.42433825  0.71146634    -0.88870
O2139       O  0.33027812  0.39938093  0.70893875    -0.88970
O2140       O  0.32829205  0.43135276  0.68946695    -0.76030
Mg2141     Mg  0.33269905  0.41898216  0.78571032     1.57970
O2142       O  0.30251429  0.36890455  0.77557887    -0.83400
H2143       H  0.38893031  0.46066393  0.78128386    -0.07130
O2144       O  0.35376930  0.46960143  0.71759776    -0.88670
H2145       H  0.33527271  0.48824434  0.69635420    -0.06950
H2146       H  0.40533007  0.41285542  0.72463128    -0.07130
C2147       C  0.33749748  0.48169303  0.71327323     0.86420
C2148       C  0.37201392  0.45451311  0.77808199     0.87010
C2149       C  0.39323291  0.42651434  0.72376378     0.87050
H2150       H  0.30214520  0.40931154  0.69299400    -0.07110
O2151       O  0.29397012  0.41721387  0.74460138    -0.76130
Mg2152     Mg  0.36307083  0.45003852  0.68980230     1.58000
H2153       H  0.28496009  0.44945014  0.75238358    -0.07120
C2154       C  0.34928868  0.52440848  0.76141571     0.92040
O2155       O  0.40435151  0.49063860  0.71567033    -0.83360
C2156       C  0.41028854  0.48047254  0.69768663     0.92100
O2157       O  0.32564764  0.44030979  0.81703870    -0.83350
Mg2158     Mg  0.31456388  0.38411254  0.73970396     1.58180
O2159       O  0.36470457  0.51514958  0.74918865    -0.81680
O2160       O  0.35487076  0.35266492  0.70203259    -0.83380
O2161       O  0.35921284  0.60730291  0.75980093    -0.88960
C2162       C  0.29825200  0.63675370  0.77352824     0.87070
Mg2163     Mg  0.37955278  0.59464224  0.78468001     1.58150
O2164       O  0.34228754  0.67537087  0.76806755    -0.88690
O2165       O  0.36672508  0.63817449  0.74066804    -0.76020
C2166       C  0.37789122  0.65997239  0.87305136     0.92120
O2167       O  0.32288160  0.58792644  0.79798817    -0.75840
O2168       O  0.37468498  0.63998418  0.86686554    -0.83340
Mg2169     Mg  0.32347686  0.59662366  0.76075622     1.57960
C2170       C  0.34523814  0.73292286  0.80876574     0.92040
O2171       O  0.31564600  0.60152443  0.72455418    -0.81610
H2172       H  0.36506660  0.69215273  0.74956350    -0.06950
C2173       C  0.31984809  0.66067498  0.82896507     0.86980
O2174       O  0.39654946  0.62942985  0.79002746    -0.76120
O2175       O  0.31689790  0.63180896  0.76540040    -0.88880
O2176       O  0.33270864  0.72425831  0.79338175    -0.81690
C2177       C  0.29997858  0.69063911  0.73372089     0.92160
C2178       C  0.32923968  0.61226618  0.71243905     0.92010
Mg2179     Mg  0.36644651  0.68335461  0.82097108     1.57950
O2180       O  0.37078674  0.67697771  0.86123386    -0.81610
O2181       O  0.37131588  0.69154096  0.78331134    -0.75850
O2182       O  0.29914465  0.66996193  0.73817911    -0.81690
O2183       O  0.33338761  0.56026327  0.75556344    -0.83400
O2184       O  0.39778979  0.60739024  0.83805074    -0.81720
C2185       C  0.35969664  0.68654653  0.76609400     0.86440
O2186       O  0.37663278  0.64909968  0.81452368    -0.88870
O2187       O  0.33055785  0.67422165  0.81695457    -0.88970
O2188       O  0.32845849  0.64229810  0.83650374    -0.76030
Mg2189     Mg  0.33277012  0.65438408  0.74021178     1.57970
O2190       O  0.30281398  0.70453014  0.75006413    -0.83400
H2191       H  0.38894080  0.61263501  0.74467682    -0.07130
O2192       O  0.35383731  0.60391017  0.80847305    -0.88670
H2193       H  0.33532167  0.58533593  0.82977528    -0.06950
H2194       H  0.40555693  0.66051452  0.80132402    -0.07130
C2195       C  0.33754611  0.59184879  0.81283899     0.86420
C2196       C  0.37204189  0.61881785  0.74789167     0.87010
C2197       C  0.39342549  0.64688004  0.80221377     0.87050
H2198       H  0.30238340  0.66439866  0.83291168    -0.07110
O2199       O  0.29415796  0.65639836  0.78137058    -0.76130
Mg2200     Mg  0.36317196  0.62349532  0.83623855     1.58000
H2201       H  0.28502058  0.62414971  0.77375720    -0.07120
C2202       C  0.34928601  0.54901646  0.76476124     0.92040
O2203       O  0.40438884  0.58282734  0.81041990    -0.83360
C2204       C  0.41031748  0.59298536  0.82841171     0.92100
O2205       O  0.32555126  0.63301116  0.70897541    -0.83350
Mg2206     Mg  0.31489023  0.68946363  0.78610066     1.58180
O2207       O  0.36471461  0.55828548  0.77696308    -0.81680
O2208       O  0.35534632  0.72079826  0.82374723    -0.83380
O2209       O  0.32650549  0.43268149  0.00903987    -0.88960
C2210       C  0.35592812  0.49362444  0.02295294     0.87070
Mg2211     Mg  0.31382204  0.41229045  0.03387237     1.58150
O2212       O  0.39461479  0.44966193  0.01746520    -0.88690
O2213       O  0.35743358  0.42521348  0.98998900    -0.76020
C2214       C  0.37916766  0.41392802  0.12222492     0.92120
O2215       O  0.30706570  0.46891845  0.04729007    -0.75840
O2216       O  0.35916568  0.41707262  0.11605241    -0.83340
Mg2217     Mg  0.31584121  0.46842558  0.01008128     1.57960
C2218       C  0.45213134  0.44683856  0.05820911     0.92040
O2219       O  0.32080545  0.47638182  0.97392846    -0.81610
H2220       H  0.41146810  0.42700461  0.99889739    -0.06950
C2221       C  0.37981289  0.47198097  0.07833664     0.86980
O2222       O  0.34862446  0.39531349  0.03924271    -0.76120
O2223       O  0.35101786  0.47497833  0.01480852    -0.88880
O2224       O  0.44342991  0.45938637  0.04287172    -0.81690
C2225       C  0.40991780  0.49192698  0.98333091     0.92160
C2226       C  0.33149608  0.46276932  0.96180973     0.92010
Mg2227     Mg  0.40257320  0.42544447  0.07026168     1.57950
O2228       O  0.39614968  0.42116843  0.11046095    -0.81610
O2229       O  0.41083819  0.42063193  0.03262468    -0.75850
O2230       O  0.38922765  0.49278368  0.98772318    -0.81690
O2231       O  0.27949361  0.45855416  0.00478866    -0.83400
O2232       O  0.32654801  0.39398771  0.08722545    -0.81720
C2233       C  0.40583606  0.43229755  0.01544188     0.86440
O2234       O  0.36830594  0.41522370  0.06374362    -0.88870
O2235       O  0.39338589  0.46131247  0.06633542    -0.88970
O2236       O  0.36142153  0.46333964  0.08581149    -0.76030
Mg2237     Mg  0.37362753  0.45917809  0.98961429     1.57970
O2238       O  0.42377835  0.48921379  0.99970803    -0.83400
H2239       H  0.33187989  0.40298111  0.99389792    -0.07130
O2240       O  0.32307680  0.43796599  0.05770232    -0.88670
H2241       H  0.30444843  0.45636773  0.07903484    -0.06950
H2242       H  0.37972499  0.38632540  0.05051746    -0.07130
C2243       C  0.31098669  0.45421478  0.06210286     0.86420
C2244       C  0.33805491  0.41987748  0.99714928     0.87010
C2245       C  0.36608640  0.39844458  0.05141939     0.87050
H2246       H  0.38352082  0.48943900  0.08232028    -0.07110
O2247       O  0.37555482  0.49774567  0.03083143    -0.76130
Mg2248     Mg  0.34266320  0.42861066  0.08545713     1.58000
H2249       H  0.34330818  0.50683068  0.02316809    -0.07120
C2250       C  0.26822549  0.44262199  0.01391253     0.92040
O2251       O  0.30197424  0.38740088  0.05959442    -0.83360
C2252       C  0.31211996  0.38147067  0.07759797     0.92100
O2253       O  0.35225616  0.46641108  0.95835214    -0.83350
Mg2254     Mg  0.40863233  0.47707186  0.03559112     1.58180
O2255       O  0.27747102  0.42715823  0.02609431    -0.81680
O2256       O  0.44002959  0.43659255  0.07312263    -0.83380
O2257       O  0.18533064  0.43276888  0.01550312    -0.88960
C2258       C  0.15589527  0.49367227  0.00135930     0.87070
Mg2259     Mg  0.19796409  0.41225295  0.99076093     1.58150
O2260       O  0.11717969  0.44975522  0.00714478    -0.88690
O2261       O  0.15441055  0.42541698  0.03462804    -0.76020
C2262       C  0.13252779  0.41361939  0.90238671     0.92120
O2263       O  0.20472681  0.46884134  0.97704380    -0.75840
O2264       O  0.15252239  0.41675344  0.90859380    -0.83340
Mg2265     Mg  0.19602679  0.46850333  0.01427177     1.57960
C2266       C  0.05958615  0.44663896  0.96642538     0.92040
O2267       O  0.19117801  0.47657661  0.05040857    -0.81610
H2268       H  0.10037712  0.42711477  0.02580036    -0.06950
C2269       C  0.13194298  0.47178323  0.94614259     0.86980
O2270       O  0.16314050  0.39527167  0.98550816    -0.76120
O2271       O  0.16082764  0.47506836  0.00959163    -0.88880
O2272       O  0.06825783  0.45926719  0.98172870    -0.81690
C2273       C  0.10199451  0.49230898  0.04117351     0.92160
C2274       C  0.18047954  0.46302810  0.06260724     0.92010
Mg2275     Mg  0.10917916  0.42527469  0.95440902     1.57950
O2276       O  0.11553517  0.42078279  0.91417843    -0.81610
O2277       O  0.10098898  0.42063930  0.99209579    -0.75850
O2278       O  0.12268614  0.49305926  0.03673879    -0.81690
O2279       O  0.23238071  0.45862471  0.01953418    -0.83400
O2280       O  0.18518136  0.39373074  0.93748945    -0.81720
C2281       C  0.10598819  0.43237032  0.00923427     0.86440
O2282       O  0.14344944  0.41507541  0.96092793    -0.88870
O2283       O  0.11835169  0.46116797  0.95818710    -0.88970
O2284       O  0.15031825  0.46309889  0.93868763    -0.76030
Mg2285     Mg  0.13825104  0.45939234  0.03490689     1.57970
O2286       O  0.08810440  0.48941528  0.02483804    -0.83400
H2287       H  0.17991590  0.40313569  0.03078195    -0.07130
O2288       O  0.18871276  0.43782440  0.96681415    -0.88670
H2289       H  0.20731311  0.45614024  0.94536316    -0.06950
H2290       H  0.13202317  0.38623842  0.97430905    -0.07130
C2291       C  0.20079681  0.45406073  0.96231583     0.86420
C2292       C  0.17377041  0.42002851  0.02746549     0.87010
C2293       C  0.14566962  0.39835070  0.97333257     0.87050
H2294       H  0.12826370  0.48923295  0.94209631    -0.07110
O2295       O  0.13624551  0.49774709  0.99351139    -0.76130
Mg2296     Mg  0.16907453  0.42836939  0.93913351     1.58000
H2297       H  0.16851585  0.50688611  0.00104214    -0.07120
C2298       C  0.24361968  0.44262875  0.01050581     0.92040
O2299       O  0.20975411  0.38725736  0.96515329    -0.83360
C2300       C  0.19960760  0.38125619  0.94717599     0.92100
O2301       O  0.15973041  0.46671297  0.06607978    -0.83350
Mg2302     Mg  0.10312980  0.47705659  0.98891193     1.58180
O2303       O  0.23434442  0.42710685  0.99842510    -0.81680
O2304       O  0.07172499  0.43638935  0.95155361    -0.83380
O2305       O  0.15173150  0.46623793  0.25861215    -0.88960
C2306       C  0.21253552  0.43655366  0.27270816     0.87070
Mg2307     Mg  0.13127664  0.47892571  0.28340463     1.58150
O2308       O  0.16846639  0.39801730  0.26689796    -0.88690
O2309       O  0.14428259  0.43537663  0.23944368    -0.76020
C2310       C  0.13240188  0.41341536  0.37167440     0.92120
O2311       O  0.18790701  0.48545779  0.29705184    -0.75840
O2312       O  0.13567156  0.43340196  0.36551506    -0.83340
Mg2313     Mg  0.18752330  0.47679024  0.25982422     1.57960
C2314       C  0.16513204  0.34039206  0.30756047     0.92040
O2315       O  0.19560917  0.47193907  0.22368664    -0.81610
H2316       H  0.14575801  0.38133454  0.24823013    -0.06950
C2317       C  0.19057422  0.41260030  0.32789490     0.86980
O2318       O  0.11414646  0.44417659  0.28863447    -0.76120
O2319       O  0.19395081  0.44156438  0.26448269    -0.88880
O2320       O  0.17780212  0.34903696  0.29227022    -0.81690
C2321       C  0.21096977  0.38270591  0.23288685     0.92160
C2322       C  0.18202909  0.46130235  0.21147994     0.92010
Mg2323     Mg  0.14395103  0.39005810  0.31962955     1.57950
O2324       O  0.13948142  0.39640474  0.35985999    -0.81610
O2325       O  0.13927666  0.38193430  0.28193726    -0.75850
O2326       O  0.21179969  0.40338742  0.23733161    -0.81690
O2327       O  0.17779149  0.51318863  0.25458812    -0.83400
O2328       O  0.11278503  0.46615082  0.33671063    -0.81720
C2329       C  0.15103423  0.38690251  0.26480148     0.86440
O2330       O  0.13390356  0.42437546  0.31316222    -0.88870
O2331       O  0.17988623  0.39907865  0.31584858    -0.88970
O2332       O  0.18198511  0.43100866  0.33536728    -0.76030
Mg2333     Mg  0.17819858  0.41907783  0.23915308     1.57970
O2334       O  0.20802755  0.36880778  0.24920872    -0.83400
H2335       H  0.12207770  0.46094098  0.24334163    -0.07130
O2336       O  0.15684413  0.46952963  0.30729342    -0.88670
H2337       H  0.17522623  0.48804716  0.32874325    -0.06950
H2338       H  0.10500028  0.41308444  0.29982151    -0.07130
C2339       C  0.17312052  0.48155658  0.31178898     0.86420
C2340       C  0.13895207  0.45473692  0.24664252     0.87010
C2341       C  0.11716995  0.42667978  0.30078953     0.87050
H2342       H  0.20800931  0.40883143  0.33192066    -0.07110
O2343       O  0.21653472  0.41688140  0.28054168    -0.76130
Mg2344     Mg  0.14734019  0.44990916  0.33497297     1.58000
H2345       H  0.22579723  0.44912279  0.27303132    -0.07120
C2346       C  0.16184921  0.52447310  0.26365824     0.92040
O2347       O  0.10633068  0.49078323  0.30909619    -0.83360
C2348       C  0.10033516  0.48063412  0.32708467     0.92100
O2349       O  0.18564214  0.44054629  0.20799329    -0.83350
Mg2350     Mg  0.19571533  0.38384180  0.28511905     1.58180
O2351       O  0.14630280  0.51523950  0.27575200    -0.81680
O2352       O  0.15490435  0.35254788  0.32243381    -0.83380
O2353       O  0.15200400  0.60733047  0.26542165    -0.88960
C2354       C  0.21292593  0.63694841  0.25160354     0.87070
Mg2355     Mg  0.13156292  0.59474223  0.24055853     1.58150
O2356       O  0.16888415  0.67548585  0.25743741    -0.88690
O2357       O  0.14460566  0.63809676  0.28474837    -0.76020
C2358       C  0.13295065  0.66051579  0.15247151     0.92120
O2359       O  0.18822202  0.58816612  0.22702499    -0.75840
O2360       O  0.13620546  0.64049983  0.15854740    -0.83340
Mg2361     Mg  0.18776085  0.59669430  0.26429003     1.57960
C2362       C  0.16567614  0.73321086  0.21695014     0.92040
O2363       O  0.19575828  0.60138562  0.30048280    -0.81610
H2364       H  0.14611934  0.69210082  0.27608858    -0.06950
C2365       C  0.19109002  0.66109656  0.19639686     0.86980
O2366       O  0.11451206  0.62951342  0.23539258    -0.76120
O2367       O  0.19431784  0.63192766  0.25978039    -0.88880
O2368       O  0.17829558  0.72451298  0.23224456    -0.81690
C2369       C  0.21136702  0.69068307  0.29163618     0.92160
C2370       C  0.18223125  0.61207797  0.31269987     0.92010
Mg2371     Mg  0.14448033  0.68363897  0.20464037     1.57950
O2372       O  0.14003467  0.67747127  0.16436783    -0.81610
O2373       O  0.13974349  0.69160982  0.24236190    -0.75850
O2374       O  0.21217895  0.67001575  0.28712035    -0.81690
O2375       O  0.17788076  0.56030263  0.26938585    -0.83400
O2376       O  0.11324499  0.60765215  0.18722321    -0.81720
C2377       C  0.15144695  0.68658823  0.25951616     0.86440
O2378       O  0.13435892  0.64932923  0.21094312    -0.88870
O2379       O  0.18039720  0.67456983  0.20848877    -0.88970
O2380       O  0.18248406  0.64273619  0.18881481    -0.76030
Mg2381     Mg  0.17855424  0.65435780  0.28514647     1.57970
O2382       O  0.20842850  0.70462531  0.27534836    -0.83400
H2383       H  0.12233679  0.61260259  0.28067487    -0.07130
O2384       O  0.15721070  0.60414439  0.21672469    -0.88670
H2385       H  0.17565152  0.58568102  0.19528245    -0.06950
H2386       H  0.10544217  0.66063008  0.22423557    -0.07130
C2387       C  0.17349108  0.59212157  0.21225042     0.86420
C2388       C  0.13923244  0.61879075  0.27743129     0.87010
C2389       C  0.11758972  0.64702228  0.22327010     0.87050
H2390       H  0.20853922  0.66486812  0.19241968    -0.07110
O2391       O  0.21696513  0.65664228  0.24383761    -0.76130
Mg2392     Mg  0.14780621  0.62386393  0.18907158     1.58000
H2393       H  0.22617224  0.62437097  0.25126649    -0.07120
C2394       C  0.16191121  0.54908139  0.26027687     0.92040
O2395       O  0.10665350  0.58300114  0.21479673    -0.83360
C2396       C  0.10073725  0.59318017  0.19680418     0.92100
O2397       O  0.18596212  0.63280626  0.31622976    -0.83350
Mg2398     Mg  0.19618113  0.68970235  0.23932447     1.58180
O2399       O  0.14643129  0.55837867  0.24816248    -0.81680
O2400       O  0.15549446  0.72112049  0.20199433    -0.83380
O2401       O  0.58028287  0.98268126  0.62487050    -0.88960
C2402       C  0.64295606  0.99766784  0.65257799     0.87070
Mg2403     Mg  0.56443452  0.01345758  0.60970858     1.58150
O2404       O  0.60323587  0.99095362  0.69536660    -0.88690
O2405       O  0.57815356  0.96299063  0.65670237    -0.76020
C2406       C  0.57792135  0.08683952  0.68743545     0.92120
O2407       O  0.62085957  0.01674118  0.60794610    -0.75840
O2408       O  0.57421699  0.09036734  0.66669895    -0.83340
Mg2409     Mg  0.61624343  0.97899566  0.61589894     1.57960
C2410       C  0.59831285  0.03447335  0.75041636     0.92040
O2411       O  0.62082182  0.93875684  0.62206454    -0.81610
H2412       H  0.58483416  0.96943209  0.71379961    -0.06950
C2413       C  0.62105700  0.05171742  0.68076043     0.86980
O2414       O  0.54354818  0.01787166  0.64273504    -0.76120
O2415       O  0.62622030  0.98530421  0.65023341    -0.88880
O2416       O  0.61383768  0.02240746  0.74113873    -0.81690
C2417       C  0.65974394  0.97118598  0.70642693     0.92160
C2418       C  0.62791363  0.92687917  0.63902952     0.92010
Mg2419     Mg  0.57251782  0.03840195  0.70277740     1.57950
O2420       O  0.56440549  0.07457651  0.69810274    -0.81610
O2421       O  0.57215883  0.00113049  0.71129957    -0.75850
O2422       O  0.64728452  0.96159436  0.69193294    -0.81690
O2423       O  0.60537638  0.97631587  0.57839098    -0.83400
O2424       O  0.54819178  0.06116881  0.62936499    -0.81720
C2425       C  0.58694830  0.98641203  0.70736475     0.86440
O2426       O  0.56605233  0.03389266  0.66751916    -0.88870
O2427       O  0.60830022  0.03965849  0.69219875    -0.88970
O2428       O  0.61569405  0.05904252  0.66145354    -0.76030
Mg2429     Mg  0.61277240  0.96335223  0.67565375     1.57970
O2430       O  0.65376583  0.98915219  0.71660980    -0.83400
H2431       H  0.55216090  0.96651502  0.63449562    -0.07130
O2432       O  0.59161312  0.03168080  0.62400073    -0.88670
H2433       H  0.61435021  0.05044175  0.60744739    -0.06950
H2434       H  0.53420916  0.02523344  0.67498520    -0.07130
C2435       C  0.60907330  0.03384216  0.61294239     0.86420
C2436       C  0.56958539  0.97054779  0.63831519     0.87010
C2437       C  0.54749430  0.02563834  0.66244387     0.87050
H2438       H  0.63793097  0.05500840  0.68697313    -0.07110
O2439       O  0.64596058  0.00978237  0.67009527    -0.76130
Mg2440     Mg  0.58178391  0.05933130  0.64512510     1.58000
H2441       H  0.65513509  0.99867431  0.63899595    -0.07120
C2442       C  0.59516631  0.99122201  0.56626489     0.92040
O2443       O  0.55209210  0.04942797  0.59476160    -0.83360
C2444       C  0.54905535  0.06569528  0.60869695     0.92100
O2445       O  0.62453149  0.93288836  0.65904178    -0.83350
Mg2446     Mg  0.62880014  0.01485688  0.70482059     1.58180
O2447       O  0.58245351  0.00646087  0.57492417    -0.81680
O2448       O  0.58231584  0.04351503  0.73918400    -0.83380
O2449       O  0.58071372  0.09013771  0.90033051    -0.88960
C2450       C  0.64332268  0.07506023  0.87262181     0.87070
Mg2451     Mg  0.56494903  0.05939071  0.91563197     1.58150
O2452       O  0.60353395  0.08158535  0.82989793    -0.88690
O2453       O  0.57852877  0.10972932  0.86844586    -0.76020
C2454       C  0.57836567  0.98565801  0.83828261     0.92120
O2455       O  0.62136615  0.05622750  0.91738093    -0.75840
O2456       O  0.57476985  0.98221422  0.85905184    -0.83340
Mg2457     Mg  0.61667129  0.09392230  0.90926472     1.57960
C2458       C  0.59838476  0.03789264  0.77501351     0.92040
O2459       O  0.62115546  0.13414915  0.90292259    -0.81610
H2460       H  0.58503697  0.10300181  0.81145550    -0.06950
C2461       C  0.62144717  0.02087876  0.84461700     0.86980
O2462       O  0.54399112  0.05479054  0.88270127    -0.76120
O2463       O  0.62661385  0.08745780  0.87495044    -0.88880
O2464       O  0.61393875  0.05000402  0.78420211    -0.81690
C2465       C  0.66008596  0.10127731  0.81870295     0.92160
C2466       C  0.62825095  0.14595624  0.88590564     0.92010
Mg2467     Mg  0.57282303  0.03403653  0.82274625     1.57950
O2468       O  0.56478798  0.99786089  0.82763272    -0.81610
O2469       O  0.57242347  0.07128211  0.81409547    -0.75850
O2470       O  0.64765789  0.11093248  0.83317976    -0.81690
O2471       O  0.60582575  0.09672748  0.94676812    -0.83400
O2472       O  0.54882482  0.01158987  0.89625005    -0.81720
C2473       C  0.58719924  0.08604875  0.81794000     0.86440
O2474       O  0.56648292  0.03868567  0.85796967    -0.88870
O2475       O  0.60862457  0.03288033  0.83320405    -0.88970
O2476       O  0.61619521  0.01364684  0.86399047    -0.76030
Mg2477     Mg  0.61313480  0.10928112  0.84946052     1.57970
O2478       O  0.65403765  0.08331514  0.80854754    -0.83400
H2479       H  0.55257317  0.10625931  0.89071609    -0.07130
O2480       O  0.59215528  0.04118126  0.90136057    -0.88670
H2481       H  0.61490456  0.02251600  0.91798456    -0.06950
H2482       H  0.53461319  0.04722643  0.85051386    -0.07130
C2483       C  0.60961054  0.03908711  0.91243211     0.86420
C2484       C  0.56999043  0.10222259  0.88687176     0.87010
C2485       C  0.54791773  0.04692094  0.86303300     0.87050
H2486       H  0.63828856  0.01757721  0.83832285    -0.07110
O2487       O  0.64628022  0.06287218  0.85514454    -0.76130
Mg2488     Mg  0.58233804  0.01339055  0.88041838     1.58000
H2489       H  0.65552248  0.07409249  0.88618470    -0.07120
C2490       C  0.59565972  0.08180596  0.95892215     0.92040
O2491       O  0.55276726  0.02348608  0.93078518    -0.83360
C2492       C  0.54982276  0.00714718  0.91692294     0.92100
O2493       O  0.62492073  0.13982517  0.86592161    -0.83350
Mg2494     Mg  0.62906020  0.05766124  0.82045832     1.58180
O2495       O  0.58298084  0.06652294  0.95030529    -0.81680
O2496       O  0.58246878  0.02881134  0.78633631    -0.83380
O2497       O  0.61755060  0.61183079  0.95949067    -0.88960
C2498       C  0.64499356  0.67466549  0.97421480     0.87070
Mg2499     Mg  0.60239360  0.59614748  0.99033195     1.58150
O2500       O  0.68792976  0.63509151  0.96781085    -0.88690
O2501       O  0.64944105  0.60972041  0.93989863    -0.76020
C2502       C  0.67986795  0.61038586  0.06380318     0.92120
O2503       O  0.60032210  0.65257437  0.99321400    -0.75840
O2504       O  0.65911973  0.60673452  0.06732275    -0.83340
Mg2505     Mg  0.60841724  0.64771003  0.95553976     1.57960
C2506       C  0.74296809  0.63045808  0.01135966     0.92040
O2507       O  0.61468712  0.65195199  0.91529655    -0.81610
H2508       H  0.70644742  0.61663332  0.94643068    -0.06950
C2509       C  0.67323878  0.65325235  0.02842727     0.86980
O2510       O  0.63546706  0.57542221  0.99498271    -0.76120
O2511       O  0.64271476  0.65788176  0.96190773    -0.88880
O2512       O  0.73367207  0.64591018  0.99920232    -0.81690
C2513       C  0.69883719  0.69156230  0.94778847     0.92160
C2514       C  0.63164439  0.65910076  0.90343866     0.92010
Mg2515     Mg  0.69534097  0.60467929  0.01545250     1.57950
O2516       O  0.69053534  0.59678147  0.05165161    -0.81610
O2517       O  0.70394563  0.60413240  0.97820442    -0.75850
O2518       O  0.68438063  0.67902988  0.93822623    -0.81690
O2519       O  0.57094089  0.63663213  0.95283299    -0.83400
O2520       O  0.62197904  0.58041473  0.03816106    -0.81720
C2521       C  0.69998199  0.61882033  0.96338652     0.86440
O2522       O  0.66012419  0.59814436  0.01089090    -0.88870
O2523       O  0.68471396  0.64043113  0.01648482    -0.88970
O2524       O  0.65388932  0.64794048  0.03568492    -0.76030
Mg2525     Mg  0.66825038  0.64442541  0.94011488     1.57970
O2526       O  0.70904563  0.68565505  0.96576497    -0.83400
H2527       H  0.62731794  0.58365888  0.94352432    -0.07130
O2528       O  0.61654948  0.62354066  0.00836824    -0.88670
H2529       H  0.59982242  0.64627303  0.02695760    -0.06950
H2530       H  0.66772895  0.56627066  0.00251244    -0.07130
C2531       C  0.60537516  0.64093452  0.01040123     0.86420
C2532       C  0.63106504  0.60111996  0.94745984     0.87010
C2533       C  0.65513807  0.57950548  0.00277489     0.87050
H2534       H  0.67944949  0.67014278  0.03164226    -0.07110
O2535       O  0.66249744  0.67778522  0.98633256    -0.76130
Mg2536     Mg  0.63763345  0.61400087  0.03615203     1.58000
H2537       H  0.63136880  0.68679623  0.97515927    -0.07120
C2538       C  0.55885568  0.62645707  0.96780658     0.92040
O2539       O  0.58738661  0.58405605  0.02631492    -0.83360
C2540       C  0.60130603  0.58129037  0.04263746     0.92100
O2541       O  0.65165938  0.65592678  0.90955187    -0.83350
Mg2542     Mg  0.69730217  0.66079017  0.99156930     1.58180
O2543       O  0.56757288  0.61391689  0.98314941    -0.81680
O2544       O  0.73173546  0.61454180  0.02055947    -0.83380
O2545       O  0.89316934  0.61231560  0.06633534    -0.88960
C2546       C  0.86555271  0.67505048  0.05138619     0.87070
Mg2547     Mg  0.90830450  0.59647206  0.03553912     1.58150
O2548       O  0.82269716  0.63540118  0.05808549    -0.88690
O2549       O  0.86132209  0.61024877  0.08601194    -0.76020
C2550       C  0.83057686  0.61022945  0.96221388     0.92120
O2551       O  0.91020169  0.65290838  0.03234547    -0.75840
O2552       O  0.85131292  0.60655923  0.95865186    -0.83340
Mg2553     Mg  0.90222256  0.64824895  0.07007616     1.57960
C2554       C  0.76758912  0.63047624  0.01466377     0.92040
O2555       O  0.89604275  0.65276146  0.11033735    -0.81610
H2556       H  0.80426654  0.61699799  0.07960745    -0.06950
C2557       C  0.83730733  0.65327320  0.99736909     0.86980
O2558       O  0.87523886  0.57566387  0.03108777    -0.76120
O2559       O  0.86788863  0.65831497  0.06375305    -0.88880
O2560       O  0.77688291  0.64600856  0.02671456    -0.81690
C2561       C  0.81169930  0.69191448  0.07785906     0.92160
C2562       C  0.87908037  0.65985322  0.12221959     0.92010
Mg2563     Mg  0.81524860  0.60473015  0.01063047     1.57950
O2564       O  0.81993635  0.59667457  0.97445715    -0.81610
O2565       O  0.80674197  0.60433715  0.04790215    -0.75850
O2566       O  0.82620517  0.67946397  0.08745073    -0.81690
O2567       O  0.93973253  0.63728044  0.07273321    -0.83400
O2568       O  0.88860002  0.58037980  0.98779464    -0.81720
C2569       C  0.81069235  0.61911743  0.06262557     0.86440
O2570       O  0.85049949  0.59825236  0.01512410    -0.88870
O2571       O  0.82583588  0.64050360  0.00938619    -0.88970
O2572       O  0.85662872  0.64791816  0.99007592    -0.76030
Mg2573     Mg  0.84243001  0.64490356  0.08568009     1.57970
O2574       O  0.80148940  0.68591668  0.05991469    -0.83400
H2575       H  0.88346322  0.58420570  0.08247238    -0.07130
O2576       O  0.89407770  0.62371881  0.01736512    -0.88670
H2577       H  0.91069352  0.64643781  0.99863763    -0.06950
H2578       H  0.84296716  0.56640616  0.02370615    -0.07130
C2579       C  0.90518124  0.64115434  0.01522868     0.86420
C2580       C  0.87969021  0.60164156  0.07845256     0.87010
C2581       C  0.85553744  0.57966632  0.02333187     0.87050
H2582       H  0.83111336  0.67015722  0.99409922    -0.07110
O2583       O  0.84801756  0.67808249  0.03929473    -0.76130
Mg2584     Mg  0.87291108  0.61399471  0.98970737     1.58000
H2585       H  0.87915193  0.68721190  0.05036447    -0.07120
C2586       C  0.95183943  0.62704177  0.05782766     0.92040
O2587       O  0.92321892  0.58415480  0.99954681    -0.83360
C2588       C  0.90927180  0.58119143  0.98327238     0.92100
O2589       O  0.85906708  0.65658605  0.11614692    -0.83350
Mg2590     Mg  0.81324255  0.66097180  0.03421044     1.58180
O2591       O  0.94314402  0.61437332  0.04257164    -0.81680
O2592       O  0.77882580  0.61451814  0.00556182    -0.83380
O2593       O  0.10924047  0.03290292  0.69204357    -0.88960
C2594       C  0.04821104  0.04655297  0.66271315     0.87070
Mg2595     Mg  0.12953539  0.05781551  0.70466438     1.58150
O2596       O  0.09213416  0.04135528  0.62391455    -0.88690
O2597       O  0.11678848  0.01396423  0.66107163    -0.76020
C2598       C  0.12744160  0.14628521  0.63935392     0.92120
O2599       O  0.07288011  0.07098953  0.71154736    -0.75840
O2600       O  0.12441431  0.14002443  0.65935027    -0.83340
Mg2601     Mg  0.07352805  0.03378218  0.70277759     1.57960
C2602       C  0.09458666  0.08231846  0.56636697     0.92040
O2603       O  0.06577581  0.99759223  0.69779123    -0.81610
H2604       H  0.11483663  0.02293531  0.60695925    -0.06950
C2605       C  0.06953826  0.10210338  0.63882458     0.86980
O2606       O  0.14639181  0.06326773  0.66979609    -0.76120
O2607       O  0.06690300  0.03850071  0.66760014    -0.88880
O2608       O  0.08217243  0.06683262  0.57503878    -0.81690
C2609       C  0.04998789  0.00692267  0.60873075     0.92160
C2610       C  0.07943326  0.98555276  0.68706275     0.92010
Mg2611     Mg  0.11604827  0.09429993  0.61592499     1.57950
O2612       O  0.12020129  0.13452542  0.62237748    -0.81610
O2613       O  0.12101596  0.05669913  0.60758151    -0.75850
O2614       O  0.04917436  0.01132342  0.62941863    -0.81690
O2615       O  0.08349648  0.02853821  0.73914166    -0.83400
O2616       O  0.14768760  0.11119743  0.69186000    -0.81720
C2617       C  0.10947165  0.03944192  0.61262608     0.86440
O2618       O  0.12638094  0.08773295  0.65016228    -0.88870
O2619       O  0.08021786  0.09017195  0.62519617    -0.88970
O2620       O  0.07820945  0.10960047  0.65718944    -0.76030
Mg2621     Mg  0.08280689  0.01342642  0.64493318     1.57970
O2622       O  0.05262829  0.02331345  0.59485350    -0.83400
H2623       H  0.13899982  0.01788588  0.68663069    -0.07130
O2624       O  0.10375805  0.08155722  0.69546715    -0.88670
H2625       H  0.08527873  0.10279757  0.71412463    -0.06950
H2626       H  0.15527560  0.07455979  0.63866517    -0.07130
C2627       C  0.08750418  0.08587664  0.70758707     0.86420
C2628       C  0.12208886  0.02108330  0.68046952     0.87010
C2629       C  0.14318890  0.07543716  0.65233670     0.87050
H2630       H  0.05204887  0.10601576  0.63518427    -0.07110
O2631       O  0.04402962  0.05441386  0.64309044    -0.76130
Mg2632     Mg  0.11299837  0.10936393  0.67586418     1.58000
H2633       H  0.03501305  0.04669696  0.67535099    -0.07120
C2634       C  0.09939181  0.03776960  0.75037385     0.92040
O2635       O  0.15434492  0.08358403  0.71644167    -0.83360
C2636       C  0.16024964  0.10157146  0.70625092     0.92100
O2637       O  0.07579609  0.98210771  0.66630436    -0.83350
Mg2638     Mg  0.06460153  0.05932753  0.60994924     1.58180
O2639       O  0.11478895  0.05000790  0.74107745    -0.81680
O2640       O  0.10476616  0.09722753  0.57851980    -0.83380
O2641       O  0.10943492  0.03948580  0.83328627    -0.88960
C2642       C  0.04851103  0.02584965  0.86288346     0.87070
Mg2643     Mg  0.12970638  0.01455759  0.82064599     1.58150
O2644       O  0.09260120  0.03136292  0.90141548    -0.88690
O2645       O  0.11701475  0.05865100  0.86411160    -0.76020
C2646       C  0.12800805  0.92640184  0.88634947     0.92120
O2647       O  0.07302067  0.00131005  0.81406683    -0.75840
O2648       O  0.12481158  0.93251663  0.86633387    -0.83340
Mg2649     Mg  0.07368507  0.03856151  0.82267032     1.57960
C2650       C  0.09560283  0.99092987  0.95910877     0.92040
O2651       O  0.06593013  0.07479150  0.82750640    -0.81610
H2652       H  0.11539379  0.04993422  0.91808982    -0.06950
C2653       C  0.07007041  0.97046857  0.88697598     0.86980
O2654       O  0.14675000  0.00925946  0.85542061    -0.76120
O2655       O  0.06714960  0.03397523  0.85788571    -0.88880
O2656       O  0.08304308  0.00623975  0.95037469    -0.81690
C2657       C  0.05040360  0.06570223  0.91670602     0.92160
C2658       C  0.07954609  0.08688672  0.83823452     0.92010
Mg2659     Mg  0.11671158  0.97852254  0.90954754     1.57950
O2660       O  0.12089257  0.93826481  0.90330912    -0.81610
O2661       O  0.12165188  0.01618870  0.91759277    -0.75850
O2662       O  0.04950718  0.06122790  0.89603844    -0.81690
O2663       O  0.08355006  0.04368198  0.78626239    -0.83400
O2664       O  0.14789229  0.96121020  0.83353620    -0.81720
C2665       C  0.11002092  0.03338245  0.91255725     0.86440
O2666       O  0.12682896  0.98485946  0.87523158    -0.88870
O2667       O  0.08081804  0.98250400  0.90046042    -0.88970
O2668       O  0.07863029  0.96289267  0.86859325    -0.76030
Mg2669     Mg  0.08308535  0.05917515  0.88038574     1.57970
O2670       O  0.05318125  0.04937572  0.93062174    -0.83400
H2671       H  0.13920472  0.05454847  0.83855845    -0.07130
O2672       O  0.10397083  0.99081165  0.83004167    -0.88670
H2673       H  0.08539557  0.96949290  0.81156149    -0.06950
H2674       H  0.15580015  0.99804785  0.88652585    -0.07130
C2675       C  0.08765810  0.98644159  0.81801911     0.86420
C2676       C  0.12230266  0.05137848  0.84476719     0.87010
C2677       C  0.14363850  0.99713556  0.87292520     0.87050
H2678       H  0.05261119  0.96654020  0.89075701    -0.07110
O2679       O  0.04444239  0.01803934  0.88255356    -0.76130
Mg2680     Mg  0.11330592  0.96308933  0.84972157     1.58000
H2681       H  0.03526430  0.02559213  0.85030289    -0.07120
C2682       C  0.09941543  0.03444527  0.77499846     0.92040
O2683       O  0.15447452  0.98876726  0.80886163    -0.83360
C2684       C  0.16039997  0.97079868  0.81906648     0.92100
O2685       O  0.07585052  0.09038003  0.85897228    -0.83350
Mg2686     Mg  0.06520051  0.01337599  0.91560874     1.58180
O2687       O  0.11483774  0.02223399  0.78426839    -0.81680
O2688       O  0.10570830  0.97589326  0.94705470    -0.83380
O2689       O  0.25778610  0.18348183  0.58285920    -0.88960
C2690       C  0.24381599  0.24427332  0.61258351     0.87070
Mg2691     Mg  0.23295933  0.16300721  0.57028342     1.58150
O2692       O  0.24981593  0.20015826  0.65102713    -0.88690
O2693       O  0.27716275  0.17605483  0.61358875    -0.76020
C2694       C  0.14499495  0.16398552  0.63626325     0.92120
O2695       O  0.21930500  0.21962684  0.56377841    -0.75840
O2696       O  0.15100471  0.16729725  0.61623185    -0.83340
Mg2697     Mg  0.25659362  0.21923993  0.57225414     1.57960
C2698       C  0.20960331  0.19658342  0.70884609     0.92040
O2699       O  0.29280762  0.22726391  0.57690452    -0.81610
H2700       H  0.26860380  0.17744002  0.66755412    -0.06950
C2701       C  0.18868112  0.22221174  0.63683846     0.86980
O2702       O  0.22787724  0.14588278  0.60503674    -0.76120
O2703       O  0.25209002  0.22572645  0.60751311    -0.88880
O2704       O  0.22476001  0.20932803  0.70009208    -0.81690
C2705       C  0.28381577  0.24262496  0.66635966     0.92160
C2706       C  0.30503585  0.21375849  0.58761851     0.92010
Mg2707     Mg  0.19715246  0.17556503  0.65927651     1.57950
O2708       O  0.15690218  0.17109033  0.65319717    -0.81610
O2709       O  0.23490016  0.17092250  0.66714319    -0.75850
O2710       O  0.27934083  0.24352400  0.64568375    -0.81690
O2711       O  0.26168516  0.20941617  0.53583639    -0.83400
O2712       O  0.17970609  0.14451703  0.58327566    -0.81720
C2713       C  0.25199444  0.18270892  0.66209693     0.86440
O2714       O  0.20340669  0.16560149  0.62492720    -0.88870
O2715       O  0.20082850  0.21151004  0.65025818    -0.88970
O2716       O  0.18111067  0.21365848  0.61845302    -0.76030
Mg2717     Mg  0.27748594  0.20996018  0.62991341     1.57970
O2718       O  0.26751536  0.23967681  0.68027061    -0.83400
H2719       H  0.27310122  0.15383912  0.58805889    -0.07130
O2720       O  0.20906425  0.18857750  0.57975111    -0.88670
H2721       H  0.18756545  0.20701678  0.56134605    -0.06950
H2722       H  0.21679279  0.13669851  0.63614925    -0.07130
C2723       C  0.20454958  0.20487145  0.56775413     0.86420
C2724       C  0.26983110  0.17070982  0.59428258     0.87010
C2725       C  0.21577340  0.14887729  0.62256760     0.87050
H2726       H  0.18465473  0.23963082  0.64067535    -0.07110
O2727       O  0.23602418  0.24821235  0.63228697    -0.76130
Mg2728     Mg  0.18145762  0.17904004  0.59952352     1.58000
H2729       H  0.24340671  0.25755402  0.60003750    -0.07120
C2730       C  0.25262631  0.19342270  0.52460992     0.92040
O2731       O  0.20725229  0.13804989  0.55856655    -0.83360
C2732       C  0.18930300  0.13205987  0.56878421     0.92100
O2733       O  0.30854147  0.21750363  0.60835029    -0.83350
Mg2734     Mg  0.23161656  0.22734697  0.66533270     1.58180
O2735       O  0.24053177  0.17791580  0.53390670    -0.81680
O2736       O  0.19460072  0.18639267  0.69681930    -0.83380
O2737       O  0.25110440  0.18308988  0.44178107    -0.88960
C2738       C  0.26528741  0.24378787  0.41191491     0.87070
Mg2739     Mg  0.27588487  0.16268042  0.45453484     1.58150
O2740       O  0.25953655  0.19964073  0.37346397    -0.88690
O2741       O  0.23202504  0.17552879  0.41089008    -0.76020
C2742       C  0.36421473  0.16355660  0.38907127     0.92120
O2743       O  0.28955320  0.21929662  0.46094685    -0.75840
O2744       O  0.35803370  0.16685476  0.40904468    -0.83340
Mg2745     Mg  0.25233032  0.21890002  0.45222623     1.57960
C2746       C  0.30042859  0.19632580  0.31587135     0.92040
O2747       O  0.21620055  0.22696108  0.44728378    -0.81610
H2748       H  0.24086893  0.17694611  0.35676186    -0.06950
C2749       C  0.32052449  0.22180899  0.38806167     0.86980
O2750       O  0.28113078  0.14548720  0.41982075    -0.76120
O2751       O  0.25705436  0.22521605  0.41697813    -0.88880
O2752       O  0.28507439  0.20897675  0.32442776    -0.81690
C2753       C  0.22550702  0.24205763  0.35803682     0.92160
C2754       C  0.20401290  0.21333491  0.43668318     0.92010
Mg2755     Mg  0.31224773  0.17514848  0.36562756     1.57950
O2756       O  0.35245114  0.17066780  0.37203974    -0.81610
O2757       O  0.27457436  0.17045991  0.35740888    -0.75850
O2758       O  0.22996571  0.24295695  0.37871096    -0.81690
O2759       O  0.24702556  0.20926564  0.48866104    -0.83400
O2760       O  0.32915041  0.14413928  0.44180171    -0.81720
C2761       C  0.25743808  0.18221431  0.36235303     0.86440
O2762       O  0.30568341  0.16518263  0.39996655    -0.88870
O2763       O  0.30848295  0.21110147  0.37455150    -0.88970
O2764       O  0.32796700  0.21325127  0.40650130    -0.76030
Mg2765     Mg  0.23176202  0.20939879  0.39449063     1.57970
O2766       O  0.24182862  0.23910337  0.34414137    -0.83400
H2767       H  0.23583479  0.15341994  0.43656093    -0.07130
O2768       O  0.29979992  0.18822517  0.44507108    -0.88670
H2769       H  0.32124721  0.20663320  0.46356878    -0.06950
H2770       H  0.29229791  0.13627273  0.38874884    -0.07130
C2771       C  0.30429475  0.20451621  0.45707110     0.86420
C2772       C  0.23915813  0.17027176  0.43029820     0.87010
C2773       C  0.29328418  0.14846790  0.40231232     0.87050
H2774       H  0.32457593  0.23923212  0.38425211    -0.07110
O2775       O  0.27313278  0.24773897  0.39223531    -0.76130
Mg2776     Mg  0.32749300  0.17864463  0.42548928     1.58000
H2777       H  0.26560316  0.25708199  0.42444171    -0.07120
C2778       C  0.25606738  0.19334135  0.49999969     0.92040
O2779       O  0.30155565  0.13775257  0.46647448    -0.83360
C2780       C  0.31952091  0.13172138  0.45631376     0.92100
O2781       O  0.20056647  0.21686541  0.41590303    -0.83350
Mg2782     Mg  0.27776548  0.22687975  0.35923692     1.58180
O2783       O  0.26817747  0.17778539  0.49081620    -0.81680
O2784       O  0.31519256  0.18605410  0.32812182    -0.83380
O2785       O  0.68536094  0.13987445  0.00875927    -0.88960
C2786       C  0.65572046  0.07905829  0.02286723     0.87070
Mg2787     Mg  0.69805374  0.16031819  0.03353117     1.58150
O2788       O  0.61716352  0.12310728  0.01714151    -0.88690
O2789       O  0.65447492  0.14733768  0.98963759    -0.76020
C2790       C  0.63252835  0.15923986  0.12176820     0.92120
O2791       O  0.70463236  0.10371141  0.04715755    -0.75840
O2792       O  0.65253164  0.15599784  0.11564591    -0.83340
Mg2793     Mg  0.69594565  0.10411495  0.00992414     1.57960
C2794       C  0.55955400  0.12634029  0.05782160     0.92040
O2795       O  0.69104489  0.09609569  0.97376480    -0.81610
H2796       H  0.60042499  0.14575082  0.99844771    -0.06950
C2797       C  0.63177859  0.10099025  0.07814975     0.86980
O2798       O  0.66329142  0.17740478  0.03876844    -0.76120
O2799       O  0.66071930  0.09764221  0.01462070    -0.88880
O2800       O  0.56822044  0.11367645  0.04255557    -0.81690
C2801       C  0.60175427  0.08073699  0.98317281     0.92160
C2802       C  0.68034231  0.10966780  0.96160245     0.92010
Mg2803     Mg  0.60919490  0.14757904  0.06981985     1.57950
O2804       O  0.61554609  0.15201358  0.11000603    -0.81610
O2805       O  0.60102043  0.15225582  0.03214619    -0.75850
O2806       O  0.62244635  0.07984641  0.98756400    -0.81690
O2807       O  0.73235485  0.11391295  0.00466288    -0.83400
O2808       O  0.68524440  0.17884470  0.08676461    -0.81720
C2809       C  0.60600916  0.14050363  0.01502375     0.86440
O2810       O  0.64350706  0.15763248  0.06330950    -0.88870
O2811       O  0.61825976  0.11165983  0.06608427    -0.88970
O2812       O  0.65018943  0.10959462  0.08561220    -0.76030
Mg2813     Mg  0.63817349  0.11341950  0.98935705     1.57970
O2814       O  0.58789964  0.08357465  0.99953809    -0.83400
H2815       H  0.68005345  0.16954293  0.99351798    -0.07130
O2816       O  0.68868718  0.13473878  0.05744984    -0.88670
H2817       H  0.70721399  0.11633123  0.07887171    -0.06950
H2818       H  0.63219544  0.18651701  0.04995278    -0.07130
C2819       C  0.70071879  0.11846268  0.06192053     0.86420
C2820       C  0.67384720  0.15266492  0.99681571     0.87010
C2821       C  0.64579753  0.17436402  0.05092578     0.87050
H2822       H  0.62800432  0.08355912  0.08220275    -0.07110
O2823       O  0.63606399  0.07505372  0.03074739    -0.76130
Mg2824     Mg  0.66906088  0.14426249  0.08513366     1.58000
H2825       H  0.66828850  0.06580202  0.02317329    -0.07120
C2826       C  0.74363478  0.12985589  0.01374929     0.92040
O2827       O  0.70990463  0.18527374  0.05916630    -0.83360
C2828       C  0.69970857  0.19130171  0.07710818     0.92100
O2829       O  0.65958292  0.10600393  0.95816269    -0.83350
Mg2830     Mg  0.60301593  0.09583269  0.03538414     1.58180
O2831       O  0.73439060  0.14536499  0.02586712    -0.81680
O2832       O  0.57169169  0.13661045  0.07267921    -0.83380
O2833       O  0.82651465  0.13994083  0.01530949    -0.88960
C2834       C  0.85617854  0.07906869  0.00173501     0.87070
Mg2835     Mg  0.81383776  0.16019492  0.99037047     1.58150
O2836       O  0.89465630  0.12323812  0.00714026    -0.88690
O2837       O  0.85732765  0.14759162  0.03446657    -0.76020
C2838       C  0.87942884  0.15870893  0.90214622     0.92120
O2839       O  0.80732134  0.10349533  0.97718470    -0.75840
O2840       O  0.85942346  0.15543765  0.90826643    -0.83340
Mg2841     Mg  0.81593943  0.10417778  0.01443672     1.57960
C2842       C  0.95229981  0.12627131  0.96657235     0.92040
O2843       O  0.82079914  0.09645213  0.05068065    -0.81610
H2844       H  0.91134508  0.14605885  0.02566028    -0.06950
C2845       C  0.88017801  0.10067873  0.94623371     0.86980
O2846       O  0.84858591  0.17729207  0.98503913    -0.76120
O2847       O  0.85116164  0.09770079  0.00984285    -0.88880
O2848       O  0.94359891  0.11371645  0.98191316    -0.81690
C2849       C  0.91008688  0.08113095  0.04150685     0.92160
C2850       C  0.83151798  0.11008634  0.06276338     0.92010
Mg2851     Mg  0.90270372  0.14735425  0.95424788     1.57950
O2852       O  0.89641253  0.15160782  0.91398970    -0.81610
O2853       O  0.91079678  0.15229194  0.99190709    -0.75850
O2854       O  0.88940621  0.08016766  0.03708515    -0.81690
O2855       O  0.77952583  0.11398417  0.01957544    -0.83400
O2856       O  0.82664888  0.17839129  0.93699506    -0.81720
C2857       C  0.90579015  0.14066993  0.00912291     0.86440
O2858       O  0.86838881  0.15741785  0.96061678    -0.88870
O2859       O  0.89364528  0.11144705  0.95826960    -0.88970
O2860       O  0.86178419  0.10920919  0.93865254    -0.76030
Mg2861     Mg  0.87366588  0.11370036  0.03499927     1.57970
O2862       O  0.92395485  0.08389827  0.02513600    -0.83400
H2863       H  0.83171566  0.16970975  0.03037989    -0.07130
O2864       O  0.82324082  0.13446911  0.96662785    -0.88670
H2865       H  0.80477432  0.11583479  0.94535021    -0.06950
H2866       H  0.87966832  0.18639653  0.97379303    -0.07130
C2867       C  0.81124128  0.11812682  0.96229147     0.86420
C2868       C  0.83796425  0.15282922  0.02720646     0.87010
C2869       C  0.86607900  0.17421559  0.97289523     0.87050
H2870       H  0.88398616  0.08323021  0.94230609    -0.07110
O2871       O  0.87584058  0.07504075  0.99389212    -0.76130
Mg2872     Mg  0.84287324  0.14385259  0.93886954     1.58000
H2873       H  0.84362093  0.06579329  0.00151818    -0.07120
C2874       C  0.76824906  0.12984930  0.01035500     0.92040
O2875       O  0.80199552  0.18496021  0.96456085    -0.83360
C2876       C  0.81218007  0.19088751  0.94657599     0.92100
O2877       O  0.85227255  0.10643982  0.06622775    -0.83350
Mg2878     Mg  0.90885588  0.09585573  0.98914371     1.58180
O2879       O  0.77749812  0.14527273  0.99811798    -0.81680
O2880       O  0.94021154  0.13638615  0.95156588    -0.83380
O2881       O  0.65124339  0.10675405  0.76596508    -0.88960
C2882       C  0.71213733  0.13619910  0.75167788     0.87070
Mg2883     Mg  0.63064583  0.09412207  0.74126304     1.58150
O2884       O  0.66823662  0.17485284  0.75770461    -0.88690
O2885       O  0.64400150  0.13761010  0.78521304    -0.76020
C2886       C  0.63178772  0.15973210  0.65307091     0.92120
O2887       O  0.68721456  0.08741530  0.72739876    -0.75840
O2888       O  0.63496304  0.13971507  0.65917908    -0.83340
Mg2889     Mg  0.68699240  0.09607216  0.76463094     1.57960
C2890       C  0.66487934  0.23246468  0.71721870     0.92040
O2891       O  0.69523571  0.10085926  0.80073892    -0.81610
H2892       H  0.64564389  0.19155367  0.77648911    -0.06950
C2893       C  0.69004848  0.16024987  0.69660658     0.86980
O2894       O  0.61360855  0.12890724  0.73610161    -0.76120
O2895       O  0.69355893  0.13126103  0.75997240    -0.88880
O2896       O  0.67761032  0.22374342  0.73239611    -0.81690
C2897       C  0.71089279  0.19004912  0.79149918     0.92160
C2898       C  0.68173393  0.11152988  0.81299662     0.92010
Mg2899     Mg  0.64353930  0.18292609  0.70509661     1.57950
O2900       O  0.63899446  0.17668358  0.66488992    -0.81610
O2901       O  0.63901540  0.19099319  0.74281324    -0.75850
O2902       O  0.71165336  0.16936237  0.78706505    -0.81690
O2903       O  0.67713142  0.05974092  0.76989890    -0.83400
O2904       O  0.61203904  0.10696563  0.68802969    -0.81720
C2905       C  0.65083915  0.18599611  0.75988883     0.86440
O2906       O  0.63339199  0.14864273  0.71153521    -0.88870
O2907       O  0.67945100  0.17378303  0.70871477    -0.88970
O2908       O  0.68136957  0.14187710  0.68914308    -0.76030
Mg2909     Mg  0.67799037  0.15377281  0.78539070     1.57970
O2910       O  0.70797127  0.20394710  0.77518222    -0.83400
H2911       H  0.62164984  0.11216244  0.78131654    -0.07130
O2912       O  0.65616580  0.10342142  0.71727173    -0.88670
H2913       H  0.67441472  0.08485479  0.69575554    -0.06950
H2914       H  0.60454973  0.16002153  0.72492544    -0.07130
C2915       C  0.67238761  0.09135105  0.71271749     0.86420
C2916       C  0.63854817  0.11829520  0.77798099     0.87010
C2917       C  0.61666969  0.14639039  0.72393669     0.87050
H2918       H  0.70748176  0.16397430  0.69251947    -0.07110
O2919       O  0.71619506  0.15585460  0.74382821    -0.76130
Mg2920     Mg  0.64665531  0.12310027  0.68964764     1.58000
H2921       H  0.72534094  0.12357821  0.75130316    -0.07120
C2922       C  0.66111348  0.04850510  0.76090331     0.92040
O2923       O  0.60557150  0.08235009  0.71566628    -0.83360
C2924       C  0.59956571  0.09251829  0.69769517     0.92100
O2925       O  0.68546378  0.13226267  0.81650825    -0.83350
Mg2926     Mg  0.69546109  0.18894297  0.73936722     1.58180
O2927       O  0.64555865  0.05777311  0.74886117    -0.81680
O2928       O  0.65457241  0.22039795  0.70233024    -0.83380
O2929       O  0.65119610  0.96567640  0.75933522    -0.88960
C2930       C  0.71211437  0.93618226  0.77324365     0.87070
Mg2931     Mg  0.63076804  0.97829661  0.78416973     1.58150
O2932       O  0.66810428  0.89756574  0.76758477    -0.88690
O2933       O  0.64374451  0.93483041  0.74015858    -0.76020
C2934       C  0.63243822  0.91286204  0.87253644     0.92120
O2935       O  0.68741653  0.98502725  0.79766712    -0.75840
O2936       O  0.63559927  0.93285358  0.86633151    -0.83340
Mg2937     Mg  0.68694988  0.97633944  0.76044543     1.57960
C2938       C  0.66503294  0.83995686  0.80829409     0.92040
O2939       O  0.69494260  0.97151263  0.72429188    -0.81610
H2940       H  0.64534872  0.88083143  0.74902208    -0.06950
C2941       C  0.69041362  0.91220973  0.82848921     0.86980
O2942       O  0.61376972  0.94350332  0.78947517    -0.76120
O2943       O  0.69348617  0.94114622  0.76508872    -0.88880
O2944       O  0.67759752  0.84860313  0.79291331    -0.81690
C2945       C  0.71055359  0.88239756  0.73335625     0.92160
C2946       C  0.68135492  0.96086184  0.71210683     0.92010
Mg2947     Mg  0.64382617  0.88954273  0.82043735     1.57950
O2948       O  0.63949945  0.89586571  0.86069316    -0.81610
O2949       O  0.63902464  0.88140493  0.78275940    -0.75850
O2950       O  0.71134997  0.90306439  0.73786154    -0.81690
O2951       O  0.67708296  0.01267494  0.75521983    -0.83400
O2952       O  0.61248045  0.96553462  0.83756078    -0.81720
C2953       C  0.65068782  0.88641031  0.76556820     0.86440
O2954       O  0.63364674  0.92380989  0.81399136    -0.88870
O2955       O  0.67972052  0.89864768  0.81649158    -0.88970
O2956       O  0.68179255  0.93059103  0.83599472    -0.76030
Mg2957     Mg  0.67770490  0.91863444  0.73979620     1.57970
O2958       O  0.70764894  0.86845522  0.74965326    -0.83400
H2959       H  0.62152560  0.96037654  0.74409941    -0.07130
O2960       O  0.65642799  0.96901773  0.80800401    -0.88670
H2961       H  0.67481250  0.98760753  0.82939031    -0.06950
H2962       H  0.60474558  0.91240637  0.80074374    -0.07130
C2963       C  0.67267974  0.98109746  0.81244553     0.86420
C2964       C  0.63840971  0.95418332  0.74736914     0.87010
C2965       C  0.61687452  0.92604157  0.80165830     0.87050
H2966       H  0.70787716  0.90849930  0.83244629    -0.07110
O2967       O  0.71619549  0.91651470  0.78104581    -0.76130
Mg2968     Mg  0.64708510  0.94939098  0.83572902     1.58000
H2969       H  0.72534357  0.94878718  0.77352590    -0.07120
C2970       C  0.66111912  0.02391044  0.76430697     0.92040
O2971       O  0.60586665  0.99008242  0.80990368    -0.83360
C2972       C  0.59995875  0.97995706  0.82793174     0.92100
O2973       O  0.68498956  0.94011230  0.70860810    -0.83350
Mg2974     Mg  0.69545004  0.88343614  0.78567631     1.58180
O2975       O  0.64563307  0.01464353  0.77644862    -0.81680
O2976       O  0.65489721  0.85210348  0.82323194    -0.83380
O2977       O  0.57640578  0.28999071  0.15815821    -0.88960
C2978       C  0.60599635  0.27594992  0.21904258     0.87070
Mg2979     Mg  0.56379450  0.26517251  0.13769509     1.58150
O2980       O  0.64461143  0.28185210  0.17505314    -0.88690
O2981       O  0.60726743  0.30921450  0.15079032    -0.76020
C2982       C  0.62948090  0.17699591  0.13924789     0.92120
O2983       O  0.55712099  0.25151639  0.19430856    -0.75840
O2984       O  0.60947451  0.18315169  0.14238983    -0.83340
Mg2985     Mg  0.56576878  0.28875138  0.19392359     1.57960
C2986       C  0.70230631  0.24133523  0.17182258     0.92040
O2987       O  0.57056812  0.32488619  0.20202913    -0.81610
H2988       H  0.66127548  0.30054280  0.15233776    -0.06950
C2989       C  0.63007371  0.22089039  0.19721728     0.86980
O2990       O  0.59859535  0.25998128  0.12066704    -0.76120
O2991       O  0.60100182  0.28415300  0.20044154    -0.88880
O2992       O  0.69363321  0.25662676  0.18446226    -0.81690
C2993       C  0.65976092  0.31593967  0.21761344     0.92160
C2994       C  0.58124193  0.33710778  0.18848484     0.92010
Mg2995     Mg  0.65269513  0.22912334  0.15063200     1.57950
O2996       O  0.64645394  0.18887464  0.14631342    -0.81610
O2997       O  0.66075081  0.26682864  0.14589956    -0.75850
O2998       O  0.63909237  0.31141273  0.21838472    -0.81690
O2999       O  0.52937472  0.29392915  0.18408434    -0.83400
O3000       O  0.57666953  0.21185181  0.11932913    -0.81720
C3001       C  0.65573760  0.28396200  0.15762996     0.86440
O3002       O  0.61838389  0.23550509  0.14050137    -0.88870
O3003       O  0.64362213  0.23292642  0.18653817    -0.88970
O3004       O  0.61168517  0.21338718  0.18860009    -0.76030
Mg3005     Mg  0.62348894  0.30954013  0.18474597     1.57970
O3006       O  0.67371530  0.29967434  0.21466148    -0.83400
H3007       H  0.58177889  0.30524724  0.12850465    -0.07130
O3008       O  0.57315286  0.24131232  0.16330385    -0.88670
H3009       H  0.55459233  0.21982717  0.18161916    -0.06950
H3010       H  0.62971990  0.24883521  0.11160591    -0.07130
C3011       C  0.56107681  0.23679167  0.17953625     0.86420
C3012       C  0.58793508  0.30196897  0.14540263     0.87010
C3013       C  0.61609914  0.24785645  0.12374595     0.87050
H3014       H  0.63379910  0.21690396  0.21467086    -0.07110
O3015       O  0.62568726  0.26819140  0.22309418    -0.76130
Mg3016     Mg  0.59285472  0.21367061  0.15391538     1.58000
H3017       H  0.59339994  0.27558918  0.23227474    -0.07120
C3018       C  0.51812648  0.28485204  0.16811644     0.92040
O3019       O  0.55204602  0.23945007  0.11277011    -0.83360
C3020       C  0.56220496  0.22145672  0.10683657     0.92100
O3021       O  0.60197751  0.34063881  0.19217472    -0.83350
Mg3022     Mg  0.65878435  0.26370225  0.20234241     1.58180
O3023       O  0.52740730  0.27277403  0.15259552    -0.81680
O3024       O  0.69017954  0.22641290  0.16163185    -0.83380
O3025       O  0.43519695  0.28314461  0.15828588    -0.88960
C3026       C  0.40572003  0.29695690  0.21929262     0.87070
Mg3027     Mg  0.44780389  0.30799900  0.13785309     1.58150
O3028       O  0.36697231  0.29129491  0.17538995    -0.88690
O3029       O  0.40427387  0.26402459  0.15091563    -0.76020
C3030       C  0.38223139  0.39622236  0.13975881     0.92120
O3031       O  0.45456373  0.32148943  0.19450814    -0.75840
O3032       O  0.40223816  0.39004416  0.14284618    -0.83340
Mg3033     Mg  0.44589109  0.28426374  0.19403372     1.57960
C3034       C  0.30934328  0.33199738  0.17250364     0.92040
O3035       O  0.44108097  0.24811349  0.20202137    -0.81610
H3036       H  0.35019683  0.27272450  0.15267249    -0.06950
C3037       C  0.38172695  0.35217095  0.19766588     0.86980
O3038       O  0.41296346  0.31329157  0.12092227    -0.76120
O3039       O  0.41066436  0.28885104  0.20063970    -0.88880
O3040       O  0.31802384  0.31663385  0.18505697    -0.81690
C3041       C  0.35183511  0.25707739  0.21784662     0.92160
C3042       C  0.43041205  0.23595953  0.18842339     0.92010
Mg3043     Mg  0.35894523  0.34413083  0.15114023     1.57950
O3044       O  0.36526199  0.38437267  0.14689253    -0.81610
O3045       O  0.35078749  0.30645963  0.14633126    -0.75850
O3046       O  0.37253080  0.26151766  0.21856726    -0.81690
O3047       O  0.48227529  0.27910181  0.18411457    -0.83400
O3048       O  0.43497122  0.36137672  0.11960841    -0.81720
C3049       C  0.35579112  0.28927316  0.15799585     0.86440
O3050       O  0.39323351  0.33771325  0.14087502    -0.88870
O3051       O  0.36812517  0.34018644  0.18700585    -0.88970
O3052       O  0.40009510  0.35967983  0.18899867    -0.76030
Mg3053     Mg  0.38811653  0.26354933  0.18490065     1.57970
O3054       O  0.33793306  0.27341375  0.21502969    -0.83400
H3055       H  0.42973501  0.26801224  0.12859535    -0.07130
O3056       O  0.43853102  0.33179544  0.16353574    -0.88670
H3057       H  0.45713000  0.35320739  0.18188137    -0.06950
H3058       H  0.38182008  0.32448005  0.11197506    -0.07130
C3059       C  0.45062394  0.33625615  0.17976683     0.86420
C3060       C  0.42361743  0.27123859  0.14551714     0.87010
C3061       C  0.39546966  0.32541184  0.12408206     0.87050
H3062       H  0.37806533  0.35611082  0.21514235    -0.07110
O3063       O  0.38605297  0.30473056  0.22342491    -0.76130
Mg3064     Mg  0.41884179  0.35947767  0.15425493     1.58000
H3065       H  0.41834234  0.29722038  0.23249943    -0.07120
C3066       C  0.49350499  0.28820213  0.16813843     0.92040
O3067       O  0.45955802  0.33376594  0.11296973    -0.83360
C3068       C  0.44941828  0.35178537  0.10707999     0.92100
O3069       O  0.40967320  0.23240605  0.19210183    -0.83350
Mg3070     Mg  0.35292224  0.30939256  0.20278092     1.58180
O3071       O  0.48420777  0.30031509  0.15265176    -0.81680
O3072       O  0.32148151  0.34690741  0.16229388    -0.83380
O3073       O  0.43045564  0.59059301  0.62533796    -0.88960
C3074       C  0.36766635  0.57578583  0.65287237     0.87070
Mg3075     Mg  0.44613891  0.55976075  0.61010953     1.58150
O3076       O  0.40736971  0.58216036  0.69572243    -0.88690
O3077       O  0.43259046  0.61021405  0.65720043    -0.76020
C3078       C  0.43195191  0.48608642  0.68743203     0.92120
O3079       O  0.38970433  0.55686213  0.60814017    -0.75840
O3080       O  0.43563012  0.48263379  0.66668194    -0.83340
Mg3081     Mg  0.39454355  0.59452867  0.61626615     1.57960
C3082       C  0.41206391  0.53847205  0.75068827     0.92040
O3083       O  0.39016412  0.63477454  0.62256427    -0.81610
H3084       H  0.42596412  0.60348050  0.71418164    -0.06950
C3085       C  0.38915112  0.52155783  0.68094735     0.86980
O3086       O  0.46692366  0.55504775  0.64313871    -0.76120
O3087       O  0.38444621  0.58810294  0.65057166    -0.88880
O3088       O  0.39661795  0.55066263  0.74143727    -0.81690
C3089       C  0.35088951  0.60202533  0.70679208     0.92160
C3090       C  0.38300584  0.64658494  0.63954413     0.92010
Mg3091     Mg  0.43776312  0.53442512  0.70301114     1.57950
O3092       O  0.44555674  0.49819521  0.69816109    -0.81610
O3093       O  0.43836955  0.57167905  0.71162342    -0.75850
O3094       O  0.36335786  0.61164886  0.69231523    -0.81690
O3095       O  0.40556910  0.59729619  0.57878446    -0.83400
O3096       O  0.46192037  0.51185006  0.62958563    -0.81720
C3097       C  0.42370544  0.58653503  0.70771412     0.86440
O3098       O  0.44426496  0.53903956  0.66779905    -0.88870
O3099       O  0.40200748  0.53346791  0.69242163    -0.88970
O3100       O  0.39443084  0.51431339  0.66159004    -0.76030
Mg3101     Mg  0.39792236  0.60988958  0.67609660     1.57970
O3102       O  0.35687262  0.58406595  0.71697935    -0.83400
H3103       H  0.45861969  0.60663780  0.63503468    -0.07130
O3104       O  0.41877760  0.54168949  0.62427940    -0.88670
H3105       H  0.39601055  0.52312625  0.60756283    -0.06950
H3106       H  0.47615086  0.54743861  0.67536241    -0.07130
C3107       C  0.40135940  0.53967214  0.61313575     0.86420
C3108       C  0.44117335  0.60265678  0.63882023     0.87010
C3109       C  0.46288844  0.54719302  0.66279649     0.87050
H3110       H  0.37226222  0.51835151  0.68717201    -0.07110
O3111       O  0.36459406  0.56363610  0.67036555    -0.76130
Mg3112     Mg  0.42834547  0.51385150  0.64528234     1.58000
H3113       H  0.35549851  0.57486235  0.63927922    -0.07120
C3114       C  0.41575379  0.58237245  0.56665866     0.92040
O3115       O  0.45818887  0.52376147  0.59502725    -0.83360
C3116       C  0.46100462  0.50740703  0.60891008     0.92100
O3117       O  0.38625692  0.64045542  0.65954739    -0.83350
Mg3118     Mg  0.38169240  0.55834360  0.70511185     1.58180
O3119       O  0.42832026  0.56702483  0.57532783    -0.81680
O3120       O  0.42794198  0.52927008  0.73941674    -0.83380
O3121       O  0.43072250  0.48269950  0.90039094    -0.88960
C3122       C  0.36786797  0.49744841  0.87307742     0.87070
Mg3123     Mg  0.44636788  0.51351005  0.91569551     1.58150
O3124       O  0.40748421  0.49130758  0.83013156    -0.88690
O3125       O  0.43285604  0.46319416  0.86845877    -0.76020
C3126       C  0.43197490  0.58738044  0.83866672     0.92120
O3127       O  0.38994004  0.51627634  0.91778162    -0.75840
O3128       O  0.43564185  0.59080833  0.85942232    -0.83340
Mg3129     Mg  0.39483643  0.47864409  0.90953024     1.57960
C3130       C  0.41206756  0.53511292  0.77529814     0.92040
O3131       O  0.39052297  0.43840570  0.90309046    -0.81610
H3132       H  0.42605994  0.47007945  0.81155765    -0.06950
C3133       C  0.38921599  0.55183233  0.84510693     0.86980
O3134       O  0.46712632  0.51838145  0.88267375    -0.76120
O3135       O  0.38466788  0.48515164  0.87528647    -0.88880
O3136       O  0.39664800  0.52287392  0.78454888    -0.81690
C3137       C  0.35098423  0.47133486  0.81917957     0.92160
C3138       C  0.38338673  0.42662979  0.88607389     0.92010
Mg3139     Mg  0.43781491  0.53910494  0.82294048     1.57950
O3140       O  0.44559855  0.57531618  0.82791892    -0.81610
O3141       O  0.43844752  0.50188589  0.81420539    -0.75850
O3142       O  0.36352207  0.46169332  0.83357464    -0.81690
O3143       O  0.40591515  0.47581066  0.94697787    -0.83400
O3144       O  0.46202090  0.56152566  0.89640188    -0.81720
C3145       C  0.42380020  0.48699810  0.81808916     0.86440
O3146       O  0.44437968  0.53440613  0.85812066    -0.88870
O3147       O  0.40206909  0.53996822  0.83358658    -0.88970
O3148       O  0.39451046  0.55903041  0.86447662    -0.76030
Mg3149     Mg  0.39814394  0.46349088  0.84966075     1.57970
O3150       O  0.35691767  0.48933087  0.80901379    -0.83400
H3151       H  0.45891045  0.46677178  0.89059038    -0.07130
O3152       O  0.41895893  0.53157220  0.90163531    -0.88670
H3153       H  0.39618315  0.55002624  0.91845252    -0.06950
H3154       H  0.47627634  0.52614594  0.85046216    -0.07130
C3155       C  0.40155432  0.53351106  0.91281731     0.86420
C3156       C  0.44144812  0.47071260  0.88684971     0.87010
C3157       C  0.46303576  0.52629891  0.86305526     0.87050
H3158       H  0.37231803  0.55503158  0.83891311    -0.07110
O3159       O  0.36473993  0.50966378  0.85564227    -0.76130
Mg3160     Mg  0.42844487  0.55950287  0.88073149     1.58000
H3161       H  0.35573266  0.49829941  0.88670858    -0.07120
C3162       C  0.41600463  0.49081763  0.95908399     0.92040
O3163       O  0.45837854  0.54943718  0.93091103    -0.83360
C3164       C  0.46111139  0.56586368  0.91710107     0.92100
O3165       O  0.38662094  0.43282695  0.86609106    -0.83350
Mg3166     Mg  0.38175735  0.51508453  0.82087429     1.58180
O3167       O  0.42854371  0.50618537  0.95041254    -0.81680
O3168       O  0.42793645  0.54434231  0.78656540    -0.83380
O3169       O  0.93101423  0.09090586  0.12437900    -0.88960
C3170       C  0.86836103  0.07606062  0.15208006     0.87070
Mg3171     Mg  0.94667991  0.06004087  0.10929215     1.58150
O3172       O  0.90810170  0.08264865  0.19486700    -0.88690
O3173       O  0.93323808  0.11061461  0.15617996    -0.76020
C3174       C  0.93276406  0.98655895  0.18691050     0.92120
O3175       O  0.89027422  0.05701442  0.10740265    -0.75840
O3176       O  0.93645373  0.98309272  0.16616333    -0.83340
Mg3177     Mg  0.89508296  0.09472012  0.11535892     1.57960
C3178       C  0.91279660  0.03910538  0.25008072     0.92040
O3179       O  0.89070485  0.13496682  0.12151259    -0.81610
H3180       H  0.92666384  0.10406446  0.21324880    -0.06950
C3181       C  0.88991421  0.02194425  0.18042205     0.86980
O3182       O  0.96751563  0.05549917  0.14233063    -0.76120
O3183       O  0.88510449  0.08841380  0.14970803    -0.88880
O3184       O  0.89735567  0.05127082  0.24077688    -0.81690
C3185       C  0.85159409  0.10251278  0.20582483     0.92160
C3186       C  0.88356684  0.14683410  0.13845931     0.92010
Mg3187     Mg  0.93852085  0.03496695  0.20237688     1.57950
O3188       O  0.94633621  0.99871460  0.19763281    -0.81610
O3189       O  0.93908551  0.07225537  0.21085710    -0.75850
O3190       O  0.86407618  0.11208568  0.19133269    -0.81690
O3191       O  0.90597916  0.09733194  0.07782651    -0.83400
O3192       O  0.96256483  0.01226094  0.12891201    -0.81720
C3193       C  0.92442280  0.08708862  0.20685481     0.86440
O3194       O  0.94497676  0.03949263  0.16711571    -0.88870
O3195       O  0.90276793  0.03393006  0.19181782    -0.88970
O3196       O  0.89516253  0.01465400  0.16107362    -0.76030
Mg3197     Mg  0.89861090  0.11030701  0.17512646     1.57970
O3198       O  0.85757963  0.08460669  0.21610750    -0.83400
H3199       H  0.95919282  0.10700955  0.13393371    -0.07130
O3200       O  0.91937644  0.04198530  0.12361597    -0.88670
H3201       H  0.89663804  0.02328645  0.10701059    -0.06950
H3202       H  0.97684986  0.04804568  0.17456115    -0.07130
C3203       C  0.90195791  0.03987262  0.11249154     0.86420
C3204       C  0.94176244  0.10302294  0.13778859     0.87010
C3205       C  0.96355681  0.04770116  0.16203083     0.87050
H3206       H  0.87305123  0.01871445  0.18670211    -0.07110
O3207       O  0.86534054  0.06397103  0.16962307    -0.76130
Mg3208     Mg  0.92904295  0.01422800  0.14469080     1.58000
H3209       H  0.85618137  0.07504711  0.13850331    -0.07120
C3210       C  0.91614145  0.08233421  0.06577407     0.92040
O3211       O  0.95874670  0.02405975  0.09432444    -0.83360
C3212       C  0.96158080  0.00775698  0.10825359     0.92100
O3213       O  0.88688844  0.14080580  0.15848194    -0.83350
Mg3214     Mg  0.88244084  0.05884620  0.20438873     1.58180
O3215       O  0.92876447  0.06707596  0.07451476    -0.81680
O3216       O  0.92870440  0.02990649  0.23883977    -0.83380
O3217       O  0.93060174  0.98367837  0.40036304    -0.88960
C3218       C  0.86798399  0.99851650  0.37253376     0.87070
Mg3219     Mg  0.94614568  0.01452828  0.41559424     1.58150
O3220       O  0.90784757  0.99210179  0.32982040    -0.88690
O3221       O  0.93290726  0.96408998  0.36849393    -0.76020
C3222       C  0.93222513  0.08816506  0.33806961     0.92120
O3223       O  0.88973008  0.01737894  0.41746217    -0.75840
O3224       O  0.93573638  0.09160650  0.35885290    -0.83340
Mg3225     Mg  0.89466729  0.97973719  0.40931359     1.57960
C3226       C  0.91272853  0.03575280  0.27471412     0.92040
O3227       O  0.89045127  0.93952868  0.40300447    -0.81610
H3228       H  0.92649005  0.97076291  0.31143872    -0.06950
C3229       C  0.88945502  0.05268396  0.34434532     0.86980
O3230       O  0.96701894  0.01927996  0.38260585    -0.76120
O3231       O  0.88473767  0.98619096  0.37493884    -0.88880
O3232       O  0.89726049  0.02354121  0.28393308    -0.81690
C3233       C  0.85140137  0.97215195  0.31862204     0.92160
C3234       C  0.88327334  0.92773656  0.38602838     0.92010
Mg3235     Mg  0.93819587  0.03984779  0.32253407     1.57950
O3236       O  0.94592496  0.07608552  0.32743342    -0.81610
O3237       O  0.93886188  0.00258944  0.31394022    -0.75850
O3238       O  0.86382497  0.96259627  0.33316900    -0.81690
O3239       O  0.90554959  0.97691971  0.44684803    -0.83400
O3240       O  0.96184839  0.06240462  0.39613166    -0.81720
C3241       C  0.92420917  0.98771803  0.31786758     0.86440
O3242       O  0.94448025  0.03522994  0.35780454    -0.88870
O3243       O  0.90239434  0.04079733  0.33294421    -0.88970
O3244       O  0.89458106  0.05987212  0.36376483    -0.76030
Mg3245     Mg  0.89831869  0.96438993  0.34947683     1.57970
O3246       O  0.85742354  0.99006474  0.30836593    -0.83400
H3247       H  0.95882341  0.96767767  0.39078422    -0.07130
O3248       O  0.91878956  0.03253313  0.40128266    -0.88670
H3249       H  0.89602521  0.05112319  0.41796734    -0.06950
H3250       H  0.97641181  0.02686035  0.35041964    -0.07130
C3251       C  0.90137314  0.03456860  0.41242411     0.86420
C3252       C  0.94139266  0.97163809  0.38692172     0.87010
C3253       C  0.96308122  0.02710455  0.36291620     0.87050
H3254       H  0.87261314  0.05589090  0.33800509    -0.07110
O3255       O  0.86498561  0.01060075  0.35498030    -0.76130
Mg3256     Mg  0.92839728  0.06037621  0.38025346     1.58000
H3257       H  0.85576372  0.99949463  0.38607861    -0.07120
C3258       C  0.91575878  0.99178266  0.45903101     0.92040
O3259       O  0.95801936  0.05051796  0.43069202    -0.83360
C3260       C  0.96076821  0.06686415  0.41679400     0.92100
O3261       O  0.88655872  0.93384891  0.36602437    -0.83350
Mg3262     Mg  0.88218486  0.01585495  0.32025180     1.58180
O3263       O  0.92830703  0.00717888  0.45039658    -0.81680
O3264       O  0.92855919  0.04498312  0.28604096    -0.83380
O3265       O  0.08108821  0.48317110  0.12410362    -0.88960
C3266       C  0.14376783  0.49806540  0.15185728     0.87070
Mg3267     Mg  0.06540204  0.51400078  0.10887018     1.58150
O3268       O  0.10398892  0.49157043  0.19461837    -0.88690
O3269       O  0.07886876  0.46357984  0.15599074    -0.76020
C3270       C  0.07914220  0.58750808  0.18644168     0.92120
O3271       O  0.12182591  0.51699807  0.10707061    -0.75840
O3272       O  0.07555320  0.59099583  0.16567961    -0.83340
Mg3273     Mg  0.11703764  0.47930392  0.11516547     1.57960
C3274       C  0.09908427  0.53520133  0.24966004     0.92040
O3275       O  0.12146608  0.43904848  0.12146805    -0.81610
H3276       H  0.08548898  0.47014515  0.21306574    -0.06950
C3277       C  0.12210411  0.55222699  0.17997342     0.86980
O3278       O  0.04453382  0.51858753  0.14187918    -0.76120
O3279       O  0.12702084  0.48571441  0.14950324    -0.88880
O3280       O  0.11458911  0.52305976  0.24043147    -0.81690
C3281       C  0.16043763  0.47165211  0.20577605     0.92160
C3282       C  0.12849133  0.42719857  0.13848190     0.92010
Mg3283     Mg  0.07346326  0.53914497  0.20191450     1.57950
O3284       O  0.06552748  0.57532928  0.19708183    -0.81610
O3285       O  0.07294926  0.50189460  0.21052653    -0.75850
O3286       O  0.14797769  0.46207562  0.19127292    -0.81690
O3287       O  0.10613115  0.47653633  0.07766305    -0.83400
O3288       O  0.04940852  0.56180601  0.12845778    -0.81720
C3289       C  0.08767504  0.48710766  0.20661012     0.86440
O3290       O  0.06708682  0.53455063  0.16665622    -0.88870
O3291       O  0.10926347  0.54026592  0.19142371    -0.88970
O3292       O  0.11684826  0.55945627  0.16059997    -0.76030
Mg3293     Mg  0.11347669  0.46388511  0.17497651     1.57970
O3294       O  0.15447498  0.48962674  0.21595240    -0.83400
H3295       H  0.05290282  0.46713046  0.13375467    -0.07130
O3296       O  0.09267861  0.53209893  0.12314587    -0.88670
H3297       H  0.11546445  0.55072687  0.10650755    -0.06950
H3298       H  0.03519819  0.52605035  0.17410486    -0.07130
C3299       C  0.11012775  0.53416264  0.11205283     0.86420
C3300       C  0.07033838  0.47111504  0.13757606     0.87010
C3301       C  0.04849694  0.52637122  0.16157703     0.87050
H3302       H  0.13896821  0.55548451  0.18623095    -0.07110
O3303       O  0.14677641  0.51018683  0.16937458    -0.76130
Mg3304     Mg  0.08297236  0.55985074  0.14421458     1.58000
H3305       H  0.15596410  0.49904494  0.13828804    -0.07120
C3306       C  0.09595574  0.49141495  0.06547005     0.92040
O3307       O  0.05327117  0.55003882  0.09386369    -0.83360
C3308       C  0.05030624  0.56632572  0.10779475     0.92100
O3309       O  0.12516373  0.43332957  0.15846612    -0.83350
Mg3310     Mg  0.12961464  0.51539352  0.20410509     1.58180
O3311       O  0.08334468  0.50677427  0.07407229    -0.81680
O3312       O  0.08317056  0.54430956  0.23835866    -0.83380
O3313       O  0.08093921  0.59066689  0.39985375    -0.88960
C3314       C  0.14361398  0.57549318  0.37224972     0.87070
Mg3315     Mg  0.06504224  0.55992564  0.41501073     1.58150
O3316       O  0.10400187  0.58221140  0.32936435    -0.88690
O3317       O  0.07892422  0.61028296  0.36796866    -0.76020
C3318       C  0.07872605  0.48636855  0.33739942     0.92120
O3319       O  0.12145735  0.55662365  0.41697959    -0.75840
O3320       O  0.07506114  0.48288571  0.35815341    -0.83340
Mg3321     Mg  0.11687059  0.59433891  0.40891767     1.57960
C3322       C  0.09905420  0.53861421  0.27427868     0.92040
O3323       O  0.12142271  0.63457037  0.40269807    -0.81610
H3324       H  0.08564173  0.60372472  0.31089656    -0.06950
C3325       C  0.12178514  0.52147941  0.34402896     0.86980
O3326       O  0.04427296  0.55543291  0.38192649    -0.76120
O3327       O  0.12692150  0.58791317  0.37458165    -0.88880
O3328       O  0.11459410  0.55068022  0.28355415    -0.81690
C3329       C  0.16057472  0.60184258  0.31836332     0.92160
C3330       C  0.12859388  0.64640492  0.38573550     0.92010
Mg3331     Mg  0.07326937  0.53475767  0.32195771     1.57950
O3332       O  0.06518526  0.49859261  0.32672888    -0.81610
O3333       O  0.07295355  0.57202126  0.31337928    -0.75850
O3334       O  0.14814619  0.61146835  0.33286268    -0.81690
O3335       O  0.10589104  0.59710061  0.44641976    -0.83400
O3336       O  0.04891738  0.51217813  0.39539365    -0.81720
C3337       C  0.08773628  0.58674802  0.31734173     0.86440
O3338       O  0.06681047  0.53935502  0.35720792    -0.88870
O3339       O  0.10902721  0.53348653  0.33254605    -0.88970
O3340       O  0.11644601  0.51427077  0.36338944    -0.76030
Mg3341     Mg  0.11358746  0.60982611  0.34908601     1.57970
O3342       O  0.15453074  0.58391398  0.30815332    -0.83400
H3343       H  0.05287157  0.60684755  0.39012900    -0.07130
O3344       O  0.09227517  0.54168772  0.40080942    -0.88670
H3345       H  0.11490548  0.52292817  0.41748960    -0.06950
H3346       H  0.03498866  0.54800703  0.34967818    -0.07130
C3347       C  0.10967742  0.53952459  0.41194989     0.86420
C3348       C  0.07029726  0.60278158  0.38635613     0.87010
C3349       C  0.04825029  0.54762318  0.36224094     0.87050
H3350       H  0.13865315  0.51816080  0.33781405    -0.07110
O3351       O  0.14661245  0.56338804  0.35471877    -0.76130
Mg3352     Mg  0.08252357  0.51399112  0.37968625     1.58000
H3353       H  0.15576971  0.57444248  0.38584528    -0.07120
C3354       C  0.09557587  0.58226366  0.45855754     0.92040
O3355       O  0.05267579  0.52400792  0.42998532    -0.83360
C3356       C  0.04974597  0.50770502  0.41607337     0.92100
O3357       O  0.12538773  0.64028464  0.36572496    -0.83350
Mg3358     Mg  0.12952967  0.55826922  0.31993216     1.58180
O3359       O  0.08288570  0.56700983  0.44988129    -0.81680
O3360       O  0.08305740  0.52958018  0.28553323    -0.83380
O3361       O  0.80976094  0.21169136  0.14941956    -0.88960
C3362       C  0.79499101  0.14877353  0.12220367     0.87070
Mg3363     Mg  0.77893548  0.22743025  0.16461137     1.58150
O3364       O  0.80133808  0.18824083  0.07913183    -0.88690
O3365       O  0.82932834  0.21369612  0.11750228    -0.76020
C3366       C  0.70533754  0.21298130  0.08730757     0.92120
O3367       O  0.77604796  0.17100432  0.16678497    -0.75840
O3368       O  0.70184262  0.21672283  0.10804051    -0.83340
Mg3369     Mg  0.81372603  0.17582793  0.15864436     1.57960
C3370       C  0.75766309  0.19270186  0.02420508     0.92040
O3371       O  0.85399129  0.17150176  0.15234742    -0.81610
H3372       H  0.82268297  0.20669022  0.06054121    -0.06950
C3373       C  0.74072619  0.17015688  0.09404416     0.86980
O3374       O  0.77423796  0.24809701  0.13149771    -0.76120
O3375       O  0.80730926  0.16556484  0.12439869    -0.88880
O3376       O  0.76982365  0.17727261  0.03352282    -0.81690
C3377       C  0.82123994  0.13173628  0.06834922     0.92160
C3378       C  0.86583353  0.16435494  0.13538225     0.92010
Mg3379     Mg  0.75367424  0.21865635  0.07174539     1.57950
O3380       O  0.71747600  0.22654532  0.07655703    -0.81610
O3381       O  0.79091678  0.21918758  0.06309544    -0.75850
O3382       O  0.83087324  0.14428803  0.08274244    -0.81690
O3383       O  0.81647180  0.18698874  0.19607492    -0.83400
O3384       O  0.73102392  0.24316887  0.14507991    -0.81720
C3385       C  0.80573827  0.20450310  0.06704534     0.86440
O3386       O  0.75827158  0.22531993  0.10693474    -0.88870
O3387       O  0.75266133  0.18294216  0.08250788    -0.88970
O3388       O  0.73347695  0.17553712  0.11337209    -0.76030
Mg3389     Mg  0.82906488  0.17893956  0.09878737     1.57970
O3390       O  0.80324594  0.13764142  0.05817660    -0.83400
H3391       H  0.82573893  0.23983045  0.13952952    -0.07130
O3392       O  0.76084932  0.20002770  0.15056744    -0.88670
H3393       H  0.74230452  0.17728767  0.16735760    -0.06950
H3394       H  0.76664958  0.25717900  0.09922634    -0.07130
C3395       C  0.75884735  0.18263543  0.16176239     0.86420
C3396       C  0.82178519  0.22235810  0.13585128     0.87010
C3397       C  0.76640530  0.24397084  0.11185379     0.87050
H3398       H  0.73750307  0.15324327  0.08790606    -0.07110
O3399       O  0.78282121  0.14561445  0.10474614    -0.76130
Mg3400     Mg  0.73303319  0.20952300  0.12951348     1.58000
H3401       H  0.79407955  0.13667533  0.13586469    -0.07120
C3402       C  0.80149391  0.19714090  0.20816240     0.92040
O3403       O  0.74295381  0.23959032  0.17965122    -0.83360
C3404       C  0.72659566  0.24237528  0.16577004     0.92100
O3405       O  0.85965495  0.16746494  0.11537486    -0.83350
Mg3406     Mg  0.77751687  0.16253020  0.06991529     1.58180
O3407       O  0.78614820  0.20968173  0.19945211    -0.81680
O3408       O  0.74851260  0.20866177  0.03539932    -0.83380
O3409       O  0.70198511  0.21087052  0.87442151    -0.88960
C3410       C  0.71680144  0.14808087  0.90194344     0.87070
Mg3411     Mg  0.73279448  0.22652952  0.85907687     1.58150
O3412       O  0.71055207  0.18777030  0.94478307    -0.88690
O3413       O  0.68247477  0.21302683  0.90635920    -0.76020
C3414       C  0.80653726  0.21249905  0.93624715     0.92120
O3415       O  0.73562347  0.17009591  0.85717238    -0.75840
O3416       O  0.80999155  0.21610919  0.91548523    -0.83340
Mg3417     Mg  0.69797504  0.17495906  0.86541059     1.57960
C3418       C  0.75430051  0.19260936  0.99960054     0.92040
O3419       O  0.65773510  0.17064521  0.87183405    -0.81610
H3420       H  0.68924953  0.20630395  0.96331516    -0.06950
C3421       C  0.77112060  0.16960801  0.92986344     0.86980
O3422       O  0.73756145  0.24736080  0.89205735    -0.76120
O3423       O  0.70448457  0.16485928  0.89968310    -0.88880
O3424       O  0.74211449  0.17712161  0.99040314    -0.81690
C3425       C  0.69063656  0.13129610  0.95590515     0.92160
C3426       C  0.64593994  0.16354885  0.88885832     0.92010
Mg3427     Mg  0.75823478  0.21823373  0.95189490     1.57950
O3428       O  0.79441728  0.22612271  0.94692680    -0.81610
O3429       O  0.72101442  0.21879615  0.96063178    -0.75850
O3430       O  0.68099392  0.14378456  0.94146519    -0.81690
O3431       O  0.69509581  0.18596713  0.82796896    -0.83400
O3432       O  0.78070820  0.24237072  0.87847550    -0.81720
C3433       C  0.70617981  0.20409033  0.95678891     0.86440
O3434       O  0.75354622  0.22468435  0.91669815    -0.88870
O3435       O  0.75922315  0.18245525  0.94135773    -0.88970
O3436       O  0.77831962  0.17488290  0.91048290    -0.76030
Mg3437     Mg  0.68277863  0.17835925  0.92525787     1.57970
O3438       O  0.70864127  0.13725815  0.96603400    -0.83400
H3439       H  0.68603123  0.23905344  0.88418238    -0.07130
O3440       O  0.75086843  0.19918409  0.87322491    -0.88670
H3441       H  0.76936768  0.17638752  0.85648659    -0.06950
H3442       H  0.74521179  0.25657762  0.92427013    -0.07130
C3443       C  0.75283994  0.18175013  0.86210137     0.86420
C3444       C  0.68998825  0.22160161  0.88795078     0.87010
C3445       C  0.74542101  0.24331641  0.91170651     0.87050
H3446       H  0.77435088  0.15272779  0.93609278    -0.07110
O3447       O  0.72900485  0.14500796  0.91939420    -0.76130
Mg3448     Mg  0.77873501  0.20878956  0.89416082     1.58000
H3449       H  0.71768033  0.13591620  0.88834544    -0.07120
C3450       C  0.71001263  0.19608590  0.81577147     0.92040
O3451       O  0.76880656  0.23859240  0.84392441    -0.83360
C3452       C  0.78515575  0.24148015  0.85780099     0.92100
O3453       O  0.65214452  0.16677894  0.90883508    -0.83350
Mg3454     Mg  0.73437153  0.16211665  0.95411786     1.58180
O3455       O  0.72543050  0.20863719  0.82434953    -0.81680
O3456       O  0.76347499  0.20847782  0.98828300    -0.83380
O3457       O  0.11816089  0.96175886  0.06653988    -0.88960
C3458       C  0.14547212  0.89889218  0.05185928     0.87070
Mg3459     Mg  0.10294419  0.97741253  0.03570279     1.58150
O3460       O  0.18842889  0.93850080  0.05808129    -0.88690
O3461       O  0.15005329  0.96387787  0.08611848    -0.76020
C3462       C  0.18007714  0.96299602  0.96197661     0.92120
O3463       O  0.10081573  0.92097699  0.03292058    -0.75840
O3464       O  0.15933033  0.96668513  0.95852127    -0.83340
Mg3465     Mg  0.10898193  0.92588467  0.07056737     1.57960
C3466       C  0.24332308  0.94306705  0.01437390     0.92040
O3467       O  0.11533360  0.92162532  0.11081126    -0.81610
H3468       H  0.20697877  0.95706925  0.07934339    -0.06950
C3469       C  0.17355706  0.92023019  0.99751929     0.86980
O3470       O  0.13599450  0.99814587  0.03092176    -0.76120
O3471       O  0.14324349  0.91569606  0.06414529    -0.88880
O3472       O  0.23404975  0.92765214  0.02659849    -0.81690
C3473       C  0.19934963  0.88201954  0.07806734     0.92160
C3474       C  0.13231099  0.91445379  0.12262173     0.92010
Mg3475     Mg  0.19572352  0.96881824  0.01029193     1.57950
O3476       O  0.19082439  0.97660218  0.97406513    -0.81610
O3477       O  0.20439762  0.96945069  0.04752887    -0.75850
O3478       O  0.18493224  0.89454804  0.08768625    -0.81690
O3479       O  0.07151871  0.93698425  0.07330273    -0.83400
O3480       O  0.12235952  0.99304941  0.98776914    -0.81720
C3481       C  0.20047544  0.95481004  0.06241200     0.86440
O3482       O  0.16055265  0.97538960  0.01493151    -0.88870
O3483       O  0.18505202  0.93308162  0.00941275    -0.88970
O3484       O  0.15420632  0.92552864  0.99027137    -0.76030
Mg3485     Mg  0.16883778  0.92916599  0.08585687     1.57970
O3486       O  0.20953265  0.88794975  0.06008274    -0.83400
H3487       H  0.12793865  0.98993623  0.08250091    -0.07130
O3488       O  0.11702329  0.94998768  0.01767611    -0.88670
H3489       H  0.10023693  0.92722614  0.99917084    -0.06950
H3490       H  0.16823337  0.00726969  0.02323335    -0.07130
C3491       C  0.10583248  0.93259114  0.01570255     0.86420
C3492       C  0.13168079  0.97247616  0.07856229     0.87010
C3493       C  0.15562421  0.99404279  0.02304289     0.87050
H3494       H  0.17975514  0.90333293  0.99433352    -0.07110
O3495       O  0.16292979  0.89576022  0.03967843    -0.76130
Mg3496     Mg  0.13797969  0.95947220  0.98978789     1.58000
H3497       H  0.13184023  0.88675700  0.05098683    -0.07120
C3498       C  0.05946099  0.94711923  0.05828560     0.92040
O3499       O  0.08781526  0.98941952  0.99974897    -0.83360
C3500       C  0.10167578  0.99213207  0.98336549     0.92100
O3501       O  0.15231747  0.91765191  0.11647549    -0.83350
Mg3502     Mg  0.19771233  0.91277384  0.03431754     1.58180
O3503       O  0.06819164  0.95964571  0.04294467    -0.81680
O3504       O  0.23208042  0.95893361  0.00512003    -0.83380
O3505       O  0.39316682  0.96156128  0.95894600    -0.88960
C3506       C  0.36572149  0.89873937  0.97375407     0.87070
Mg3507     Mg  0.40840900  0.97729445  0.98972898     1.58150
O3508       O  0.32282845  0.93837326  0.96740449    -0.88690
O3509       O  0.36127443  0.96367552  0.93936449    -0.76020
C3510       C  0.33113701  0.96313405  0.06339621     0.92120
O3511       O  0.41039203  0.92084939  0.99270657    -0.75840
O3512       O  0.35188199  0.96682523  0.06688160    -0.83340
Mg3513     Mg  0.40226505  0.92566101  0.95503495     1.57960
C3514       C  0.26792930  0.94306306  0.01105100     0.92040
O3515       O  0.39592801  0.92131108  0.91480575    -0.81610
H3516       H  0.30430782  0.95688148  0.94606485    -0.06950
C3517       C  0.33768931  0.92025520  0.02799998     0.86980
O3518       O  0.37538299  0.99807369  0.99442343    -0.76120
O3519       O  0.36798094  0.91553140  0.96144825    -0.88880
O3520       O  0.27718920  0.92760834  0.99888502    -0.81690
C3521       C  0.31181998  0.88188142  0.94751695     0.92160
C3522       C  0.37894073  0.91415870  0.90299568     0.92010
Mg3523     Mg  0.31556432  0.96882540  0.01506458     1.57950
O3524       O  0.32042701  0.97672349  0.05125952    -0.81610
O3525       O  0.30690974  0.96937379  0.97782725    -0.75850
O3526       O  0.32626223  0.89438643  0.93788572    -0.81690
O3527       O  0.43975377  0.93668352  0.95228712    -0.83400
O3528       O  0.38898522  0.99311872  0.03761992    -0.81720
C3529       C  0.31080468  0.95467538  0.96300628     0.86440
O3530       O  0.35076511  0.97537772  0.01044375    -0.88870
O3531       O  0.32619088  0.93307187  0.01607144    -0.88970
O3532       O  0.35702878  0.92559077  0.03525833    -0.76030
Mg3533     Mg  0.34242642  0.92898863  0.93967748     1.57970
O3534       O  0.30165352  0.88783358  0.96549978    -0.83400
H3535       H  0.38342751  0.98971929  0.94292384    -0.07130
O3536       O  0.39428307  0.94994964  0.00785620    -0.88670
H3537       H  0.41099690  0.92719440  0.02643504    -0.06950
H3538       H  0.34314858  0.00724810  0.00204613    -0.07130
C3539       C  0.40541830  0.93252890  0.00988541     0.86420
C3540       C  0.37966119  0.97226868  0.94689967     0.87010
C3541       C  0.35573490  0.99400806  0.00228742     0.87050
H3542       H  0.33149905  0.90335652  0.03122154    -0.07110
O3543       O  0.34825334  0.89563464  0.98592867    -0.76130
Mg3544     Mg  0.37329463  0.95952869  0.03567475     1.58000
H3545       H  0.37933541  0.88659338  0.97465131    -0.07120
C3546       C  0.45183876  0.94683822  0.96726740     0.92040
O3547       O  0.42353159  0.98943596  0.02564633    -0.83360
C3548       C  0.40967638  0.99224166  0.04201899     0.92100
O3549       O  0.35893797  0.91742737  0.90910115    -0.83350
Mg3550     Mg  0.31350298  0.91269818  0.99122290     1.58180
O3551       O  0.44314082  0.95943777  0.98256028    -0.81680
O3552       O  0.27918459  0.95896165  0.02024000    -0.83380
O3553       O  0.18081016  0.17384610  0.81634965    -0.88960
C3554       C  0.11800099  0.14635763  0.80172414     0.87070
Mg3555     Mg  0.19637999  0.18909544  0.78547612     1.58150
O3556       O  0.15768959  0.10347977  0.80800280    -0.88690
O3557       O  0.18299343  0.14198525  0.83598334    -0.76020
C3558       C  0.18191783  0.11183706  0.71181332     0.92120
O3559       O  0.13994408  0.19111695  0.78277178    -0.75840
O3560       O  0.18558085  0.13259395  0.70835938    -0.83340
Mg3561     Mg  0.14492775  0.18296166  0.82041190     1.57960
C3562       C  0.16225483  0.04848087  0.76430980     0.92040
O3563       O  0.14074735  0.17665823  0.86065699    -0.81610
H3564       H  0.17638768  0.08504290  0.82925093    -0.06950
C3565       C  0.13927834  0.11823789  0.74745251     0.86980
O3566       O  0.21715125  0.15608429  0.78063197    -0.76120
O3567       O  0.13480051  0.14865661  0.81400821    -0.88880
O3568       O  0.14684454  0.05774075  0.77654456    -0.81690
C3569       C  0.10121437  0.09247733  0.82798785     0.92160
C3570       C  0.13354149  0.15969953  0.87247615     0.92010
Mg3571     Mg  0.18793467  0.09620320  0.76012822     1.57950
O3572       O  0.19556710  0.10108781  0.72385606    -0.81610
O3573       O  0.18866296  0.08760432  0.79739173    -0.75850
O3574       O  0.11371209  0.10694259  0.83758336    -0.81690
O3575       O  0.15597627  0.22044646  0.82315055    -0.83400
O3576       O  0.21191253  0.16975406  0.73745379    -0.81720
C3577       C  0.17405499  0.09150542  0.81231118     0.86440
O3578       O  0.19444357  0.13143020  0.76469974    -0.88870
O3579       O  0.15218699  0.10677546  0.75931484    -0.88970
O3580       O  0.14450449  0.13761343  0.74020468    -0.76030
Mg3581     Mg  0.14830645  0.12311460  0.83575672     1.57970
O3582       O  0.10717839  0.08225578  0.81004503    -0.83400
H3583       H  0.20901815  0.16414982  0.83230927    -0.07130
O3584       O  0.16893985  0.17494168  0.76749755    -0.88670
H3585       H  0.14613388  0.19168641  0.74901169    -0.06950
H3586       H  0.22637170  0.12388457  0.77293638    -0.07130
C3587       C  0.15153090  0.18610635  0.76553965     0.86420
C3588       C  0.19155978  0.16036420  0.82838644     0.87010
C3589       C  0.21309853  0.13643803  0.77276863     0.87050
H3590       H  0.12238858  0.11198852  0.74430290    -0.07110
O3591       O  0.11489889  0.12886065  0.78959479    -0.76130
Mg3592     Mg  0.17839507  0.15396948  0.73960513     1.58000
H3593       H  0.10583766  0.15995370  0.80081506    -0.07120
C3594       C  0.16611535  0.23254694  0.80816476     0.92040
O3595       O  0.20826471  0.20426974  0.74950272    -0.83360
C3596       C  0.21093133  0.19044811  0.73308690     0.92100
O3597       O  0.13671996  0.13968617  0.86634645    -0.83350
Mg3598     Mg  0.13195179  0.09409363  0.78426093     1.58180
O3599       O  0.17861727  0.22384989  0.79278992    -0.81680
O3600       O  0.17810178  0.05975889  0.75503822    -0.83380
O3601       O  0.18036741  0.89832783  0.70902728    -0.88960
C3602       C  0.11767204  0.92605263  0.72375086     0.87070
Mg3603     Mg  0.19597050  0.88310798  0.73988864     1.58150
O3604       O  0.15749517  0.96880264  0.71736982    -0.88690
O3605       O  0.18265608  0.93018907  0.68940402    -0.76020
C3606       C  0.18203149  0.96051300  0.81344115     0.92120
O3607       O  0.13953398  0.88128543  0.74276492    -0.75840
O3608       O  0.18567370  0.93975997  0.81690771    -0.83340
Mg3609     Mg  0.14442608  0.88936656  0.70509097     1.57960
C3610       C  0.16223923  0.02385430  0.76097844     0.92040
O3611       O  0.14010423  0.89566250  0.66484595    -0.81610
H3612       H  0.17610142  0.98724259  0.69603030    -0.06950
C3613       C  0.13918004  0.95414116  0.77797472     0.86980
O3614       O  0.21684247  0.91610812  0.74454873    -0.76120
O3615       O  0.13445681  0.92370297  0.71145511    -0.88880
O3616       O  0.14679665  0.01460636  0.74877400    -0.81690
C3617       C  0.10106797  0.97993253  0.69736015     0.92160
C3618       C  0.13303001  0.91266052  0.65300484     0.92010
Mg3619     Mg  0.18784719  0.97610663  0.76509732     1.57950
O3620       O  0.19564896  0.97122803  0.80132582    -0.81610
O3621       O  0.18849242  0.98471579  0.72784214    -0.75850
O3622       O  0.11354304  0.96544177  0.68779155    -0.81690
O3623       O  0.15530615  0.85184514  0.70239294    -0.83400
O3624       O  0.21181281  0.90260643  0.78773295    -0.81720
C3625       C  0.17383594  0.98078968  0.71298302     0.86440
O3626       O  0.19426343  0.94085792  0.76050924    -0.88870
O3627       O  0.15206117  0.96558776  0.76605433    -0.88970
O3628       O  0.14441895  0.93477904  0.78524410    -0.76030
Mg3629     Mg  0.14805215  0.94917251  0.68965091     1.57970
O3630       O  0.10702629  0.99013956  0.71531607    -0.83400
H3631       H  0.20859140  0.90793134  0.69302594    -0.07130
O3632       O  0.16864653  0.89738113  0.75791281    -0.88670
H3633       H  0.14583288  0.88074256  0.77650483    -0.06950
H3634       H  0.22616858  0.94832189  0.75208402    -0.07130
C3635       C  0.15119852  0.88628008  0.75994874     0.86420
C3636       C  0.19115308  0.91177486  0.69697479     0.87010
C3637       C  0.21286823  0.93579222  0.75235957     0.87050
H3638       H  0.12230534  0.96039742  0.78117278    -0.07110
O3639       O  0.11463316  0.94356275  0.73587173    -0.76130
Mg3640     Mg  0.17828845  0.91838132  0.78571851     1.58000
H3641       H  0.10546963  0.91248446  0.72468427    -0.07120
C3642       C  0.16543699  0.83971122  0.71735120     0.92040
O3643       O  0.20797248  0.86803825  0.77590151    -0.83360
C3644       C  0.21084532  0.88194148  0.79221978     0.92100
O3645       O  0.13639374  0.93265613  0.65908420    -0.83350
Mg3646     Mg  0.13180011  0.97828199  0.74112069     1.58180
O3647       O  0.17803224  0.84836488  0.73268541    -0.81680
O3648       O  0.17808902  0.01256476  0.77021836    -0.83380
O3649       O  0.11672344  0.11235061  0.45888321    -0.88960
C3650       C  0.14439801  0.17510800  0.47356902     0.87070
Mg3651     Mg  0.10151209  0.09665633  0.48972864     1.58150
O3652       O  0.18717359  0.13537109  0.46717632    -0.88690
O3653       O  0.14859215  0.11012649  0.43926945    -0.76020
C3654       C  0.17901589  0.11042767  0.56314947     0.92120
O3655       O  0.09976195  0.15309808  0.49267028    -0.75840
O3656       O  0.15827473  0.10675827  0.56667212    -0.83340
Mg3657     Mg  0.10777574  0.14828766  0.45496432     1.57960
C3658       C  0.24212911  0.13058499  0.51078417     0.92040
O3659       O  0.11402923  0.15266088  0.41469600    -0.81610
H3660       H  0.20566624  0.11690385  0.44578310    -0.06950
C3661       C  0.17246868  0.15345863  0.52783761     0.86980
O3662       O  0.13450879  0.07577862  0.49426961    -0.76120
O3663       O  0.14208521  0.15831886  0.46127981    -0.88880
O3664       O  0.23289036  0.14606694  0.49862669    -0.81690
C3665       C  0.19829029  0.19177868  0.44711660     0.92160
C3666       C  0.13103186  0.15965147  0.40279999     0.92010
Mg3667     Mg  0.19447322  0.10486594  0.51477111     1.57950
O3668       O  0.18967673  0.09686448  0.55094951    -0.81610
O3669       O  0.20309676  0.10435336  0.47753095    -0.75850
O3670       O  0.18382372  0.17926504  0.43755005    -0.81690
O3671       O  0.07028734  0.13738595  0.45230313    -0.83400
O3672       O  0.12112986  0.08061692  0.53748187    -0.81720
C3673       C  0.19919014  0.11907864  0.46273656     0.86440
O3674       O  0.15924792  0.09839200  0.51020330    -0.88870
O3675       O  0.18391331  0.14065419  0.51584819    -0.88970
O3676       O  0.15314589  0.14812865  0.53515443    -0.76030
Mg3677     Mg  0.16754641  0.14475183  0.43947253     1.57970
O3678       O  0.20842232  0.18589338  0.46514680    -0.83400
H3679       H  0.12637112  0.08414916  0.44289704    -0.07130
O3680       O  0.11578469  0.12392850  0.50779940    -0.88670
H3681       H  0.09920964  0.14675748  0.52640590    -0.06950
H3682       H  0.16675963  0.06652198  0.50172406    -0.07130
C3683       C  0.10472873  0.14139822  0.50984502     0.86420
C3684       C  0.13018792  0.10159401  0.44683788     0.87010
C3685       C  0.15420431  0.07978871  0.50204028     0.87050
H3686       H  0.17869100  0.17034132  0.53106829    -0.07110
O3687       O  0.16187944  0.17816881  0.48572618    -0.76130
Mg3688     Mg  0.13682256  0.11421164  0.53554083     1.58000
H3689       H  0.13081247  0.18728605  0.47447590    -0.07120
C3690       C  0.05815787  0.12729841  0.46729696     0.92040
O3691       O  0.08652199  0.08448068  0.52576651    -0.83360
C3692       C  0.10047408  0.08148086  0.54202995     0.92100
O3693       O  0.15102624  0.15631045  0.40888917    -0.83350
Mg3694     Mg  0.19659030  0.16103684  0.49096095     1.58180
O3695       O  0.06679315  0.11467213  0.48262065    -0.81680
O3696       O  0.23085783  0.11466346  0.51992195    -0.83380
O3697       O  0.39193241  0.11213071  0.56642657    -0.88960
C3698       C  0.36463833  0.17494942  0.55124555     0.87070
Mg3699     Mg  0.40719671  0.09621065  0.53572392     1.58150
O3700       O  0.32159908  0.13548966  0.55782590    -0.88690
O3701       O  0.35997932  0.11023583  0.58595142    -0.76020
C3702       C  0.32980812  0.11010609  0.46205148     0.92120
O3703       O  0.40929890  0.15262960  0.53250041    -0.75840
O3704       O  0.35055613  0.10642667  0.45856053    -0.83340
Mg3705     Mg  0.40110502  0.14802538  0.57019611     1.57960
C3706       C  0.26672861  0.13057764  0.51417565     0.92040
O3707       O  0.39476676  0.15254436  0.61042925    -0.81610
H3708       H  0.30302530  0.11717341  0.57929844    -0.06950
C3709       C  0.33654049  0.15317556  0.49713616     0.86980
O3710       O  0.37411094  0.07548296  0.53111618    -0.76120
O3711       O  0.36684881  0.15823573  0.56366629    -0.88880
O3712       O  0.27600336  0.14613287  0.52621225    -0.81690
C3713       C  0.31071545  0.19209608  0.57740154     0.92160
C3714       C  0.37778468  0.15971970  0.62222701     0.92010
Mg3715     Mg  0.31431749  0.10470925  0.51040989     1.57950
O3716       O  0.31912998  0.09657212  0.47428275    -0.81610
O3717       O  0.30564876  0.10442191  0.54764226    -0.75850
O3718       O  0.32513620  0.17962237  0.58709738    -0.81690
O3719       O  0.43852853  0.13690465  0.57309536    -0.83400
O3720       O  0.38768048  0.08015536  0.48787511    -0.81720
C3721       C  0.30954105  0.11923885  0.56234414     0.86440
O3722       O  0.34952041  0.09815472  0.51505095    -0.88870
O3723       O  0.32499702  0.14045249  0.50913237    -0.88970
O3724       O  0.35588868  0.14777590  0.48995149    -0.76030
Mg3725     Mg  0.34123290  0.14497639  0.58548513     1.57970
O3726       O  0.30056994  0.18608066  0.55942499    -0.83400
H3727       H  0.38201059  0.08408134  0.58253931    -0.07130
O3728       O  0.39315168  0.12348894  0.51744695    -0.88670
H3729       H  0.40993915  0.14614540  0.49879700    -0.06950
H3730       H  0.34184845  0.06632589  0.52357376    -0.07130
C3731       C  0.40432377  0.14088714  0.51536125     0.86420
C3732       C  0.37834085  0.10153109  0.57848456     0.87010
C3733       C  0.35446086  0.07954844  0.52326899     0.87050
H3734       H  0.33039024  0.17006340  0.49380377    -0.07110
O3735       O  0.34717387  0.17801947  0.53905990    -0.76130
Mg3736     Mg  0.37207040  0.11381008  0.48969913     1.58000
H3737       H  0.37828817  0.18705649  0.55026201    -0.07120
C3738       C  0.45069776  0.12663405  0.55826792     0.92040
O3739       O  0.42225126  0.08382954  0.49980656    -0.83360
C3740       C  0.40837797  0.08091629  0.48345772     0.92100
O3741       O  0.35778821  0.15662275  0.61600981    -0.83350
Mg3742     Mg  0.31235933  0.16102251  0.53384233     1.58180
O3743       O  0.44206175  0.11400561  0.54294369    -0.81680
O3744       O  0.27796192  0.11456411  0.50517352    -0.83380
O3745       O  0.05977753  0.14868516  0.93732215    -0.88960
C3746       C  0.04505572  0.17609821  0.87449923     0.87070
Mg3747     Mg  0.02891263  0.13350854  0.95295514     1.58150
O3748       O  0.05136202  0.21905131  0.91409268    -0.88690
O3749       O  0.07936791  0.18057782  0.93944664    -0.76020
C3750       C  0.95524303  0.21074960  0.93849380     0.92120
O3751       O  0.02612473  0.13139211  0.89653338    -0.75840
O3752       O  0.95180262  0.18999834  0.94219045    -0.83340
Mg3753     Mg  0.06377929  0.13953582  0.90145040     1.57960
C3754       C  0.00763503  0.27407913  0.91859212     0.92040
O3755       O  0.10403344  0.14582631  0.89723437    -0.81610
H3756       H  0.07265287  0.23756825  0.93266419    -0.06950
C3757       C  0.99077518  0.20426697  0.89578882     0.86980
O3758       O  0.02417249  0.16658814  0.97365068    -0.76120
O3759       O  0.05736995  0.17382770  0.89128058    -0.88880
O3760       O  0.01986136  0.26479967  0.90318322    -0.81690
C3761       C  0.07132946  0.22996884  0.85761841     0.92160
C3762       C  0.11587029  0.16278811  0.89006198     0.92010
Mg3763     Mg  0.00356278  0.22641130  0.94437202     1.57950
O3764       O  0.96731979  0.22151512  0.95209846    -0.81610
O3765       O  0.04081707  0.23505631  0.94501367    -0.75850
O3766       O  0.08093714  0.21552825  0.87013475    -0.81690
O3767       O  0.06649678  0.10206773  0.91253972    -0.83400
O3768       O  0.98100359  0.15299788  0.96858160    -0.81720
C3769       C  0.05570808  0.23109337  0.93039602     0.86440
O3770       O  0.00819248  0.19120515  0.95093086    -0.88870
O3771       O  0.00266163  0.21576161  0.90864830    -0.88970
O3772       O  0.98355799  0.18489283  0.90106524    -0.76030
Mg3773     Mg  0.07911683  0.19939497  0.90474005     1.57970
O3774       O  0.05336362  0.24016873  0.86355336    -0.83400
H3775       H  0.07574936  0.15844269  0.96550008    -0.07130
O3776       O  0.01091575  0.14763496  0.92552493    -0.88670
H3777       H  0.99237276  0.13086232  0.90278442    -0.06950
H3778       H  0.01655710  0.19882548  0.98280629    -0.07130
C3779       C  0.00891656  0.13643909  0.90814103     0.86420
C3780       C  0.07180808  0.16219768  0.94804054     0.87010
C3781       C  0.01632439  0.18623640  0.96956951     0.87050
H3782       H  0.98758218  0.21048278  0.87889626    -0.07110
O3783       O  0.03291642  0.19358733  0.87138751    -0.76130
Mg3784     Mg  0.98305193  0.16863235  0.93500023     1.58000
H3785       H  0.04412650  0.16248008  0.86236107    -0.07120
C3786       C  0.05150058  0.08998712  0.92268919     0.92040
O3787       O  0.99292706  0.11843786  0.96496871    -0.83360
C3788       C  0.97656920  0.13231903  0.96769533     0.92100
O3789       O  0.10971184  0.18279995  0.89319657    -0.83350
Mg3790     Mg  0.02759058  0.22839422  0.88836392     1.58180
O3791       O  0.03614765  0.09870450  0.93521027    -0.81680
O3792       O  0.99840816  0.26282047  0.93447721    -0.83380
O3793       O  0.95206384  0.42415634  0.93694560    -0.88960
C3794       C  0.96688185  0.39657637  0.87416688     0.87070
Mg3795     Mg  0.98289901  0.43943924  0.95257490     1.58150
O3796       O  0.96056267  0.35369318  0.91385644    -0.88690
O3797       O  0.93255465  0.39221046  0.93911103    -0.76020
C3798       C  0.05652649  0.36207352  0.93839528     0.92120
O3799       O  0.98571695  0.44142879  0.89614186    -0.75840
O3800       O  0.05999396  0.38283825  0.94198317    -0.83340
Mg3801     Mg  0.94807130  0.43319549  0.90103773     1.57960
C3802       C  0.00426952  0.29870745  0.91855731     0.92040
O3803       O  0.90782972  0.42680424  0.89675435    -0.81610
H3804       H  0.93922590  0.33516796  0.93238181    -0.06950
C3805       C  0.02110935  0.36852205  0.89558313     0.86980
O3806       O  0.98766548  0.40638421  0.97333308    -0.76120
O3807       O  0.95456682  0.39887904  0.89094568    -0.88880
O3808       O  0.99207443  0.30794549  0.90309889    -0.81690
C3809       C  0.94059385  0.34260527  0.85742537     0.92160
C3810       C  0.89602918  0.40979423  0.88964628     0.92010
Mg3811     Mg  0.00824231  0.34644941  0.94422290     1.57950
O3812       O  0.04443005  0.35139286  0.95205129    -0.81610
O3813       O  0.97101039  0.33774683  0.94483564    -0.75850
O3814       O  0.93100146  0.35708639  0.86989927    -0.81690
O3815       O  0.94520962  0.47067295  0.91206896    -0.83400
O3816       O  0.03082497  0.41995329  0.96830414    -0.81720
C3817       C  0.95616987  0.34166278  0.93016081     0.86440
O3818       O  0.00358713  0.38169490  0.95066435    -0.88870
O3819       O  0.00923954  0.35700301  0.90844861    -0.88970
O3820       O  0.02827805  0.38791894  0.90083617    -0.76030
Mg3821     Mg  0.93282490  0.37331040  0.90445248     1.57970
O3822       O  0.95856581  0.33242558  0.86338181    -0.83400
H3823       H  0.93611670  0.41437193  0.96513646    -0.07130
O3824       O  0.00093708  0.42528801  0.92518854    -0.88670
H3825       H  0.01946324  0.44205728  0.90241687    -0.06950
H3826       H  0.99524609  0.37415680  0.98257107    -0.07130
C3827       C  0.00292707  0.43644990  0.90777570     0.86420
C3828       C  0.94006898  0.41061640  0.94768142     0.87010
C3829       C  0.99547831  0.38671424  0.96929727     0.87050
H3830       H  0.02432793  0.36230361  0.87869855    -0.07110
O3831       O  0.97900842  0.37907238  0.87108844    -0.76130
Mg3832     Mg  0.02876961  0.40424561  0.93473272     1.58000
H3833       H  0.96781564  0.41017224  0.86199697    -0.07120
C3834       C  0.96004931  0.48289244  0.92227420     0.92040
O3835       O  0.01893568  0.45452436  0.96460103    -0.83360
C3836       C  0.03528040  0.44063312  0.96743155     0.92100
O3837       O  0.90223160  0.38981064  0.89284966    -0.83350
Mg3838     Mg  0.98433946  0.34430022  0.88816460     1.58180
O3839       O  0.97548283  0.47429613  0.93480252    -0.81680
O3840       O  0.01344559  0.31000581  0.93443826    -0.83380
O3841       O  0.45215701  0.14865281  0.08757893    -0.88960
C3842       C  0.46714709  0.17651927  0.15012727     0.87070
Mg3843     Mg  0.48296663  0.13343928  0.07187860     1.58150
O3844       O  0.46051212  0.21920578  0.11028089    -0.88690
O3845       O  0.43248997  0.18047761  0.08531551    -0.76020
C3846       C  0.55649912  0.21111974  0.08524360     0.92120
O3847       O  0.48610082  0.13175614  0.12827960    -0.75840
O3848       O  0.55996185  0.19035806  0.08163211    -0.83340
Mg3849     Mg  0.44838592  0.13976272  0.12355127     1.57960
C3850       C  0.50413229  0.27431657  0.10527543     0.92040
O3851       O  0.40815082  0.14596869  0.12803165    -0.81610
H3852       H  0.43905903  0.23757548  0.09175369    -0.06950
C3853       C  0.52125761  0.20472630  0.12829364     0.86980
O3854       O  0.48751716  0.16640289  0.05090680    -0.76120
O3855       O  0.45476623  0.17412259  0.13341510    -0.88880
O3856       O  0.49200415  0.26507382  0.12079097    -0.81690
C3857       C  0.44070857  0.23034260  0.16678456     0.92160
C3858       C  0.39630239  0.16294689  0.13512062     0.92010
Mg3859     Mg  0.50808828  0.22655245  0.07965716     1.57950
O3860       O  0.54429413  0.22177862  0.07167243    -0.81610
O3861       O  0.47081336  0.23507916  0.07920080    -0.75850
O3862       O  0.43112819  0.21583069  0.15434496    -0.81690
O3863       O  0.44563528  0.10223966  0.11277324    -0.83400
O3864       O  0.53075626  0.15296992  0.05576177    -0.81720
C3865       C  0.45603179  0.23115665  0.09394298     0.86440
O3866       O  0.50353424  0.19126291  0.07333128    -0.88870
O3867       O  0.50923454  0.21610124  0.11545748    -0.88970
O3868       O  0.52853091  0.18536749  0.12306394    -0.76030
Mg3869     Mg  0.43286050  0.19951754  0.11988339     1.57970
O3870       O  0.45864582  0.24057529  0.16077207    -0.83400
H3871       H  0.43603371  0.15817876  0.05940693    -0.07130
O3872       O  0.50111912  0.14781950  0.09907469    -0.88670
H3873       H  0.51982124  0.13126740  0.12184750    -0.06950
H3874       H  0.49496588  0.19860193  0.04144020    -0.07130
C3875       C  0.50323646  0.13676239  0.11653800     0.86420
C3876       C  0.44004750  0.16206059  0.07682015     0.87010
C3877       C  0.49531450  0.18611764  0.05478105     0.87050
H3878       H  0.52454068  0.21103754  0.14512936    -0.07110
O3879       O  0.47926282  0.19405426  0.15307365    -0.76130
Mg3880     Mg  0.52885742  0.16887939  0.08923913     1.58000
H3881       H  0.46816285  0.16297068  0.16234185    -0.07120
C3882       C  0.46051433  0.09006923  0.10258353     0.92040
O3883       O  0.51894333  0.11839953  0.05975715    -0.83360
C3884       C  0.53525100  0.13230766  0.05678616     0.92100
O3885       O  0.40236083  0.18295031  0.13173552    -0.83350
Mg3886     Mg  0.48438197  0.22875838  0.13584973     1.58180
O3887       O  0.47582105  0.09868738  0.08991237    -0.81680
O3888       O  0.51322368  0.26302947  0.08934093    -0.83380
O3889       O  0.55951714  0.42472882  0.08787551    -0.88960
C3890       C  0.54451950  0.39666700  0.15034064     0.87070
Mg3891     Mg  0.52868462  0.43989866  0.07222866     1.58150
O3892       O  0.55117906  0.35408922  0.11039601    -0.88690
O3893       O  0.57919678  0.39291981  0.08552476    -0.76020
C3894       C  0.45514470  0.36216710  0.08550124     0.92120
O3895       O  0.52553848  0.44146830  0.12862721    -0.75840
O3896       O  0.45171000  0.38294058  0.08192469    -0.83340
Mg3897     Mg  0.56325752  0.43353233  0.12385923     1.57960
C3898       C  0.50757081  0.29893406  0.10530171     0.92040
O3899       O  0.60350062  0.42736987  0.12825787    -0.81610
H3900       H  0.57263789  0.33578271  0.09181589    -0.06950
C3901       C  0.49041051  0.36843415  0.12849903     0.86980
O3902       O  0.52420989  0.40695745  0.05121952    -0.76120
O3903       O  0.55691359  0.39912847  0.13364225    -0.88880
O3904       O  0.51970722  0.30814347  0.12082480    -0.81690
C3905       C  0.57096769  0.34280229  0.16686317     0.92160
C3906       C  0.61537067  0.41038570  0.13529844     0.92010
Mg3907     Mg  0.50357712  0.34675041  0.07981310     1.57950
O3908       O  0.46734541  0.35152538  0.07191162    -0.81610
O3909       O  0.54086238  0.33824766  0.07931430    -0.75850
O3910       O  0.58055268  0.35736252  0.15447017    -0.81690
O3911       O  0.56592385  0.47110511  0.11317236    -0.83400
O3912       O  0.48098757  0.42030643  0.05609008    -0.81720
C3913       C  0.55565859  0.34217467  0.09403601     0.86440
O3914       O  0.50814677  0.38204018  0.07357353    -0.88870
O3915       O  0.50244049  0.35711656  0.11562216    -0.88970
O3916       O  0.48314345  0.38781609  0.12333931    -0.76030
Mg3917     Mg  0.57882575  0.37378397  0.12004438     1.57970
O3918       O  0.55304128  0.33258073  0.16081906    -0.83400
H3919       H  0.57565865  0.41530566  0.05968034    -0.07130
O3920       O  0.51056953  0.42541169  0.09940832    -0.88670
H3921       H  0.49182036  0.44188843  0.12219283    -0.06950
H3922       H  0.51680987  0.37477082  0.04169368    -0.07130
C3923       C  0.50841921  0.43643914  0.11688079     0.86420
C3924       C  0.57163920  0.41136374  0.07708216     0.87010
C3925       C  0.51641443  0.38722964  0.05505013     0.87050
H3926       H  0.48712498  0.36205354  0.14531259    -0.07110
O3927       O  0.53241695  0.37911098  0.15323693    -0.76130
Mg3928     Mg  0.48283462  0.40437579  0.08954320     1.58000
H3929       H  0.54348068  0.41017666  0.16258931    -0.07120
C3930       C  0.55099702  0.48325585  0.10302260     0.92040
O3931       O  0.49270298  0.45489453  0.06014543    -0.83360
C3932       C  0.47643812  0.44094770  0.05716117     0.92100
O3933       O  0.60930887  0.39038199  0.13191421    -0.83350
Mg3934     Mg  0.52731235  0.34443971  0.13595054     1.58180
O3935       O  0.53572744  0.47462108  0.09032876    -0.81680
O3936       O  0.49845447  0.31025896  0.08940755    -0.83380
O3937       O  0.25229872  0.89032084  0.08334552    -0.88960
C3938       C  0.26602473  0.82938007  0.11282360     0.87070
Mg3939     Mg  0.27717252  0.91065767  0.07066053     1.58150
O3940       O  0.26062276  0.87340818  0.15143363    -0.88690
O3941       O  0.23321081  0.89785912  0.11423133    -0.76020
C3942       C  0.36550581  0.90908045  0.13602888     0.92120
O3943       O  0.29047540  0.85399903  0.06400036    -0.75840
O3944       O  0.35934317  0.90589856  0.11602988    -0.83340
Mg3945     Mg  0.25324293  0.85458068  0.07270686     1.57960
C3946       C  0.30138452  0.87625651  0.20895339     0.92040
O3947       O  0.21704011  0.84674559  0.07763991    -0.81610
H3948       H  0.24210400  0.89613073  0.16825031    -0.06950
C3949       C  0.32151638  0.85099032  0.13670624     0.86980
O3950       O  0.28252445  0.92766845  0.10544128    -0.76120
O3951       O  0.25790920  0.84803082  0.10788552    -0.88880
O3952       O  0.28600130  0.86373703  0.20028129    -0.81690
C3953       C  0.22632923  0.83120391  0.16676784     0.92160
C3954       C  0.20494427  0.86036829  0.08835004     0.92010
Mg3955     Mg  0.31349198  0.89756106  0.15939682     1.57950
O3956       O  0.35372115  0.90187027  0.15301129    -0.81610
O3957       O  0.27584854  0.90242235  0.16762890    -0.75850
O3958       O  0.23074746  0.83031704  0.14608585    -0.81690
O3959       O  0.24803313  0.86444707  0.03634254    -0.83400
O3960       O  0.33050802  0.92895759  0.08342997    -0.81720
C3961       C  0.25863789  0.89079220  0.16263099     0.86440
O3962       O  0.30700795  0.90775529  0.12513669    -0.88870
O3963       O  0.30949610  0.86168369  0.15024404    -0.88970
O3964       O  0.32904812  0.85961261  0.11832814    -0.76030
Mg3965     Mg  0.23274686  0.86391364  0.13046348     1.57970
O3966       O  0.24270333  0.83394827  0.18063461    -0.83400
H3967       H  0.23720918  0.92005803  0.08866445    -0.07130
O3968       O  0.30097282  0.88496283  0.07995178    -0.88670
H3969       H  0.32226735  0.86644219  0.06139635    -0.06950
H3970       H  0.29380659  0.93667334  0.13653126    -0.07130
C3971       C  0.30533266  0.86866653  0.06790814     0.86420
C3972       C  0.24041630  0.90316157  0.09486157     0.87010
C3973       C  0.29469929  0.92454349  0.12290363     0.87050
H3974       H  0.32547783  0.83353172  0.14043895    -0.07110
O3975       O  0.27389503  0.82527710  0.13245605    -0.76130
Mg3976     Mg  0.32873528  0.89433346  0.09953360     1.58000
H3977       H  0.26622215  0.81615373  0.10022255    -0.07120
C3978       C  0.25724290  0.88032995  0.02507395     0.92040
O3979       O  0.30290557  0.93551523  0.05881981    -0.83360
C3980       C  0.32087803  0.94147150  0.06900360     0.92100
O3981       O  0.20147965  0.85671280  0.10910381    -0.83350
Mg3982     Mg  0.27867955  0.84599498  0.16550283     1.58180
O3983       O  0.26944959  0.89576992  0.03432255    -0.81680
O3984       O  0.31632872  0.88643277  0.19683350    -0.83380
O3985       O  0.25885339  0.89017050  0.94217809    -0.88960
C3986       C  0.24503458  0.82921531  0.91281826     0.87070
Mg3987     Mg  0.23398874  0.91052111  0.95479501     1.58150
O3988       O  0.25047833  0.87318513  0.87412054    -0.88690
O3989       O  0.27793573  0.89768927  0.91128176    -0.76020
C3990       C  0.14562052  0.90876865  0.88941794     0.92120
O3991       O  0.22064347  0.85389047  0.96161765    -0.75840
O3992       O  0.15180761  0.90564214  0.90942001    -0.83340
Mg3993     Mg  0.25787297  0.85445539  0.95289879     1.57960
C3994       C  0.20978270  0.87596688  0.81651783     0.92040
O3995       O  0.29406936  0.84662298  0.94797943    -0.81610
H3996       H  0.26902543  0.89587351  0.85726205    -0.06950
C3997       C  0.18959921  0.85075408  0.88884846     0.86980
O3998       O  0.22864168  0.92745215  0.91996550    -0.76120
O3999       O  0.25318391  0.84786221  0.91772964    -0.88880
O4000       O  0.22514816  0.86345602  0.82523346    -0.81690
C4001       C  0.28474089  0.83096833  0.85889532     0.92160
C4002       C  0.30617559  0.86023371  0.93724925     0.92010
Mg4003     Mg  0.19763516  0.89729464  0.86605459     1.57950
O4004       O  0.15740523  0.90156141  0.87244112    -0.81610
O4005       O  0.23528227  0.90215791  0.85782673    -0.75850
O4006       O  0.28030201  0.83010568  0.87957304    -0.81690
O4007       O  0.26309807  0.86438928  0.98924072    -0.83400
O4008       O  0.18065504  0.92879380  0.94199439    -0.81720
C4009       C  0.25248353  0.89054498  0.86287856     0.86440
O4010       O  0.20412887  0.90752901  0.90030684    -0.88870
O4011       O  0.20160301  0.86143463  0.87527353    -0.88970
O4012       O  0.18209451  0.85939408  0.90722271    -0.76030
Mg4013     Mg  0.27835052  0.86372147  0.89511860     1.57970
O4014       O  0.26838628  0.83368332  0.84500345    -0.83400
H4015       H  0.27399584  0.91988939  0.93684349    -0.07130
O4016       O  0.21017599  0.88480919  0.94555936    -0.88670
H4017       H  0.18886068  0.86634737  0.96417274    -0.06950
H4018       H  0.21737731  0.93641621  0.88885485    -0.07130
C4019       C  0.20579854  0.86854850  0.95765629     0.86420
C4020       C  0.27075818  0.90299679  0.93065595     0.87010
C4021       C  0.21646380  0.92430905  0.90250791     0.87050
H4022       H  0.18563369  0.83328729  0.88515471    -0.07110
O4023       O  0.23716742  0.82509465  0.89318718    -0.76130
Mg4024     Mg  0.18241487  0.89413874  0.92595079     1.58000
H4025       H  0.24480486  0.81600495  0.92544346    -0.07120
C4026       C  0.25390414  0.88030159  0.00046558     0.92040
O4027       O  0.20827798  0.93538115  0.96657732    -0.83360
C4028       C  0.19030461  0.94132390  0.95639481     0.92100
O4029       O  0.30962254  0.85656701  0.91649558    -0.83350
Mg4030     Mg  0.23242096  0.84575015  0.86007554     1.58180
O4031       O  0.24170857  0.89572234  0.99117464    -0.81680
O4032       O  0.19481761  0.88613461  0.82861021    -0.83380
O4033       O  0.85979242  0.10791104  0.25876510    -0.88960
C4034       C  0.79868205  0.13723228  0.27223544     0.87070
Mg4035     Mg  0.88007574  0.09532107  0.28373851     1.58150
O4036       O  0.84262414  0.17598324  0.26688253    -0.88690
O4037       O  0.86726923  0.13880217  0.23964022    -0.76020
C4038       C  0.87772818  0.16076707  0.37196080     0.92120
O4039       O  0.82335993  0.08847765  0.29686168    -0.75840
O4040       O  0.87463561  0.14075462  0.36580539    -0.83340
Mg4041     Mg  0.82405874  0.09716209  0.25963860     1.57960
C4042       C  0.84522362  0.23353838  0.30755220     0.92040
O4043       O  0.81628008  0.10202648  0.22343495    -0.81610
H4044       H  0.86542169  0.19280769  0.24843629    -0.06950
C4045       C  0.81997545  0.16122558  0.32765446     0.86980
O4046       O  0.89696577  0.13016101  0.28911175    -0.76120
O4047       O  0.81738808  0.13233950  0.26421706    -0.88880
O4048       O  0.83278075  0.22482357  0.29213207    -0.81690
C4049       C  0.80042000  0.19112090  0.23244612     0.92160
C4050       C  0.82991388  0.11274733  0.21135177     0.92010
Mg4051     Mg  0.86653748  0.18404808  0.31984400     1.57950
O4052       O  0.87059527  0.17772117  0.36009659    -0.81610
O4053       O  0.87156476  0.19223045  0.28220556    -0.75850
O4054       O  0.79962954  0.17043831  0.23689388    -0.81690
O4055       O  0.83404912  0.06081033  0.25453012    -0.83400
O4056       O  0.89803171  0.10816651  0.33719446    -0.81720
C4057       C  0.86001121  0.18720096  0.26495548     0.86440
O4058       O  0.87686181  0.14981004  0.31347375    -0.88870
O4059       O  0.83070190  0.17480532  0.31569823    -0.88970
O4060       O  0.82860318  0.14287435  0.33523088    -0.76030
Mg4061     Mg  0.83327395  0.15492455  0.23903871     1.57970
O4062       O  0.80310993  0.20502535  0.24879516    -0.83400
H4063       H  0.88956432  0.11335039  0.24376304    -0.07130
O4064       O  0.85424486  0.10454868  0.30739863    -0.88670
H4065       H  0.83574599  0.08592578  0.32867037    -0.06950
H4066       H  0.90582142  0.16129185  0.30040615    -0.07130
C4067       C  0.83798455  0.09243887  0.31173773     0.86420
C4068       C  0.87262863  0.11947198  0.24690499     0.87010
C4069       C  0.89372514  0.14762191  0.30125360     0.87050
H4070       H  0.80247958  0.16489267  0.33151050    -0.07110
O4071       O  0.79448228  0.15687272  0.28002906    -0.76130
Mg4072     Mg  0.86337140  0.12418967  0.33516203     1.58000
H4073       H  0.78549100  0.12458657  0.27240637    -0.07120
C4074       C  0.84992801  0.04960636  0.26381571     0.92040
O4075       O  0.90483782  0.08359650  0.30961839    -0.83360
C4076       C  0.91064066  0.09376963  0.32764531     0.92100
O4077       O  0.82621642  0.13347769  0.20781089    -0.83350
Mg4078     Mg  0.81510664  0.18999097  0.28482013     1.58180
O4079       O  0.86531258  0.05892700  0.27603554    -0.81680
O4080       O  0.85532612  0.22145878  0.32256962    -0.83380
O4081       O  0.85985067  0.96669925  0.26572212    -0.88960
C4082       C  0.79885941  0.93722563  0.25198228     0.87070
Mg4083     Mg  0.88026795  0.97930742  0.24086604     1.58150
O4084       O  0.84281407  0.89854837  0.25759889    -0.88690
O4085       O  0.86727064  0.93583110  0.28489831    -0.76020
C4086       C  0.87851818  0.91374315  0.15264219     0.92120
O4087       O  0.82361269  0.98599303  0.22739985    -0.75840
O4088       O  0.87542676  0.93375026  0.15881516    -0.83340
Mg4089     Mg  0.82411358  0.97737522  0.26464468     1.57960
C4090       C  0.84567744  0.84092090  0.21693704     0.92040
O4091       O  0.81617937  0.97256919  0.30082668    -0.81610
H4092       H  0.86554209  0.88178167  0.27616225    -0.06950
C4093       C  0.82051738  0.91323744  0.19667754     0.86980
O4094       O  0.89722906  0.94448510  0.23561219    -0.76120
O4095       O  0.81751385  0.94217135  0.26008842    -0.88880
O4096       O  0.83314341  0.84961188  0.23230352    -0.81690
C4097       C  0.80042581  0.88339096  0.29189187     0.92160
C4098       C  0.82975997  0.96187842  0.31298754     0.92010
Mg4099     Mg  0.86704339  0.89048453  0.20474818     1.57950
O4100       O  0.87135546  0.89677986  0.16448685    -0.81610
O4101       O  0.87185587  0.88234836  0.24242340    -0.75850
O4102       O  0.79964683  0.90406935  0.28741270    -0.81690
O4103       O  0.83402218  0.01375771  0.26974842    -0.83400
O4104       O  0.89860820  0.96645139  0.18754806    -0.81720
C4105       C  0.86020774  0.88736713  0.25961520     0.86440
O4106       O  0.87730914  0.92475878  0.21115573    -0.88870
O4107       O  0.83117195  0.89967011  0.20870516    -0.88970
O4108       O  0.82919290  0.93158615  0.18912766    -0.76030
Mg4109     Mg  0.83329534  0.91964619  0.28537099     1.57970
O4110       O  0.80323886  0.86947510  0.27556646    -0.83400
H4111       H  0.88955113  0.96132462  0.28087301    -0.07130
O4112       O  0.85460442  0.97001215  0.21705141    -0.88670
H4113       H  0.83617674  0.98854946  0.19565628    -0.06950
H4114       H  0.90619897  0.91335431  0.22441977    -0.07130
C4115       C  0.83833625  0.98206432  0.21261022     0.86420
C4116       C  0.87263932  0.95516940  0.27765255     0.87010
C4117       C  0.89408937  0.92699738  0.22347842     0.87050
H4118       H  0.80304503  0.90955707  0.19272305    -0.07110
O4119       O  0.79473354  0.91756516  0.24419463    -0.76130
Mg4120     Mg  0.86394473  0.95034537  0.18937084     1.58000
H4121       H  0.78564801  0.94984202  0.25172728    -0.07120
C4122       C  0.84995176  0.02498596  0.26056526     0.92040
O4123       O  0.90516250  0.99106929  0.21514835    -0.83360
C4124       C  0.91111550  0.98089571  0.19717365     0.92100
O4125       O  0.82606461  0.94114400  0.31652598    -0.83350
Mg4126     Mg  0.81541356  0.88447101  0.23953725     1.58180
O4127       O  0.86543207  0.01568683  0.24845469    -0.81680
O4128       O  0.85587105  0.85303687  0.20199859    -0.83380
O4129       O  0.20195105  0.36191904  0.14994718    -0.88960
C4130       C  0.21696625  0.42463802  0.12231610     0.87070
Mg4131     Mg  0.23271319  0.34614694  0.16526897     1.58150
O4132       O  0.21050720  0.38489293  0.07954027    -0.88690
O4133       O  0.18236976  0.35979817  0.11805649    -0.76020
C4134       C  0.30644432  0.35985471  0.08792189     0.92120
O4135       O  0.23579474  0.40257346  0.16709095    -0.75840
O4136       O  0.30989888  0.35623208  0.10868310    -0.83340
Mg4137     Mg  0.19810872  0.39786207  0.15892336     1.57960
C4138       C  0.25422408  0.37989664  0.02468885     0.92040
O4139       O  0.15787489  0.40239568  0.15255282    -0.81610
H4140       H  0.18911798  0.36638869  0.06107130    -0.06950
C4141       C  0.27117073  0.40286740  0.09436092     0.86980
O4142       O  0.23736967  0.32527039  0.13229739    -0.76120
O4143       O  0.20460190  0.40789419  0.12462105    -0.88880
O4144       O  0.24209608  0.39541979  0.03388834    -0.81690
C4145       C  0.19075647  0.44140366  0.06833692     0.92160
C4146       C  0.14608751  0.40951086  0.13553382     0.92010
Mg4147     Mg  0.25808401  0.35426501  0.07238715     1.57950
O4148       O  0.29425881  0.34627086  0.07726000    -0.81610
O4149       O  0.22084400  0.35381045  0.06372409    -0.75850
O4150       O  0.18110789  0.42896222  0.08281796    -0.81690
O4151       O  0.19523291  0.38689940  0.19639810    -0.83400
O4152       O  0.28057440  0.33010860  0.14583815    -0.81720
C4153       C  0.20606476  0.36856544  0.06756706     0.86440
O4154       O  0.25343032  0.34784862  0.10760293    -0.88870
O4155       O  0.25920234  0.39005479  0.08289866    -0.88970
O4156       O  0.27839573  0.39757264  0.11372341    -0.76030
Mg4157     Mg  0.18279446  0.39443227  0.09910101     1.57970
O4158       O  0.20874121  0.43539273  0.05820090    -0.83400
H4159       H  0.18585016  0.33378686  0.14025938    -0.07130
O4160       O  0.25090719  0.37340505  0.15106881    -0.88670
H4161       H  0.26951356  0.39616325  0.16774959    -0.06950
H4162       H  0.24495154  0.31597462  0.10008936    -0.07130
C4163       C  0.25295878  0.39084964  0.16216204     0.86420
C4164       C  0.18987987  0.35121738  0.13645894     0.87010
C4165       C  0.24522983  0.32925490  0.11263302     0.87050
H4166       H  0.27445109  0.41973500  0.08811914    -0.07110
O4167       O  0.22915195  0.42765285  0.10484001    -0.76130
Mg4168     Mg  0.27870921  0.36368050  0.13008432     1.58000
H4169       H  0.21790259  0.43682035  0.13589374    -0.07120
C4170       C  0.21008103  0.37669252  0.20859884     0.92040
O4171       O  0.26869263  0.33396949  0.18039285    -0.83360
C4172       C  0.28503040  0.33101753  0.16651275     0.92100
O4173       O  0.15223208  0.40618531  0.11555245    -0.83350
Mg4174     Mg  0.23441208  0.41047121  0.07014293     1.58180
O4175       O  0.22543442  0.36407025  0.20001430    -0.81680
O4176       O  0.26331762  0.36398255  0.03599420    -0.83380
O4177       O  0.30974026  0.36159571  0.87482683    -0.88960
C4178       C  0.29490027  0.42431958  0.90234117     0.87070
Mg4179     Mg  0.27894395  0.34584071  0.85962046     1.58150
O4180       O  0.30131725  0.38463276  0.94518441    -0.88690
O4181       O  0.32935783  0.35942461  0.90669049    -0.76020
C4182       C  0.20528291  0.35959821  0.93696385     0.92120
O4183       O  0.27588390  0.40226416  0.85777386    -0.75840
O4184       O  0.20182455  0.35587446  0.91622321    -0.83340
Mg4185     Mg  0.31359690  0.39752341  0.86578784     1.57960
C4186       C  0.25763597  0.37984963  0.00009736     0.92040
O4187       O  0.35386178  0.40196767  0.87205090    -0.81610
H4188       H  0.32268932  0.36614584  0.96368742    -0.06950
C4189       C  0.24060809  0.40261026  0.93043358     0.86980
O4190       O  0.27436187  0.32496440  0.89262033    -0.76120
O4191       O  0.30724239  0.40756407  0.90007087    -0.88880
O4192       O  0.26979042  0.39532537  0.99083438    -0.81690
C4193       C  0.32119131  0.44113399  0.95617787     0.92160
C4194       C  0.36573068  0.40900063  0.88904873     0.92010
Mg4195     Mg  0.25368414  0.35406453  0.95249407     1.57950
O4196       O  0.21747833  0.34607801  0.94769655    -0.81610
O4197       O  0.29093626  0.35360299  0.96110829    -0.75850
O4198       O  0.33082695  0.42862599  0.94175784    -0.81690
O4199       O  0.31625269  0.38661570  0.82829108    -0.83400
O4200       O  0.23112581  0.32979087  0.87908798    -0.81720
C4201       C  0.30573957  0.36832909  0.95720311     0.86440
O4202       O  0.25828358  0.34754333  0.91729065    -0.88870
O4203       O  0.25262328  0.38982280  0.94186934    -0.88970
O4204       O  0.23330201  0.39727375  0.91111612    -0.76030
Mg4205     Mg  0.32903994  0.39407184  0.92557413     1.57970
O4206       O  0.30318706  0.43518973  0.96632883    -0.83400
H4207       H  0.32579434  0.33343383  0.88449148    -0.07130
O4208       O  0.26078419  0.37309123  0.87384060    -0.88670
H4209       H  0.24215558  0.39587987  0.85722990    -0.06950
H4210       H  0.26680846  0.31569212  0.92484916    -0.07130
C4211       C  0.25872153  0.39054736  0.86275796     0.86420
C4212       C  0.32181132  0.35086996  0.88829565     0.87010
C4213       C  0.26650424  0.32895717  0.91228354     0.87050
H4214       H  0.23734591  0.41948301  0.93665566    -0.07110
O4215       O  0.28269931  0.42735926  0.91979595    -0.76130
Mg4216     Mg  0.23299070  0.36335724  0.89481198     1.58000
H4217       H  0.29398215  0.43648216  0.88873756    -0.07120
C4218       C  0.30121041  0.37652237  0.81623173     0.92040
O4219       O  0.24302925  0.33363176  0.84453762    -0.83360
C4220       C  0.22668873  0.33071079  0.85840954     0.92100
O4221       O  0.35962211  0.40568161  0.90904580    -0.83350
Mg4222     Mg  0.27745953  0.41025832  0.95452522     1.58180
O4223       O  0.28596577  0.36385500  0.82493489    -0.81680
O4224       O  0.24850823  0.36390862  0.98885726    -0.83380
O4225       O  0.07651369  0.28296780  0.86590253    -0.88960
C4226       C  0.10629197  0.29664580  0.80506807     0.87070
Mg4227     Mg  0.06381821  0.30791634  0.88613450     1.58150
O4228       O  0.14472708  0.29114668  0.84925793    -0.88690
O4229       O  0.10733777  0.26381780  0.87354256    -0.76020
C4230       C  0.12949917  0.39605371  0.88469803     0.92120
O4231       O  0.05736271  0.32113409  0.82944083    -0.75840
O4232       O  0.10949209  0.38996366  0.88139690    -0.83340
Mg4233     Mg  0.06598960  0.28388862  0.83012024     1.57960
C4234       C  0.20240988  0.33173826  0.85236677     0.92040
O4235       O  0.07087205  0.24765966  0.82234547    -0.81610
H4236       H  0.16137141  0.27257395  0.87207111    -0.06950
C4237       C  0.13032936  0.35203495  0.82668220     0.86980
O4238       O  0.09854700  0.31321268  0.90327047    -0.76120
O4239       O  0.10123569  0.28850737  0.82368382    -0.88880
O4240       O  0.19374994  0.31638572  0.83979830    -0.81690
C4241       C  0.16013720  0.25683184  0.80709125     0.92160
C4242       C  0.08159637  0.23556843  0.83596735     0.92010
Mg4243     Mg  0.15275792  0.34397864  0.87339463     1.57950
O4244       O  0.14647843  0.38421220  0.87759728    -0.81610
O4245       O  0.16084119  0.30631851  0.87834061    -0.75850
O4246       O  0.13947237  0.26130648  0.80613369    -0.81690
O4247       O  0.02953850  0.27873883  0.83989454    -0.83400
O4248       O  0.07666870  0.36127705  0.90430282    -0.81720
C4249       C  0.15583666  0.28912526  0.86669623     0.86440
O4250       O  0.11841515  0.33760468  0.88339739    -0.88870
O4251       O  0.14378440  0.34000778  0.83747344    -0.88970
O4252       O  0.11191328  0.35959732  0.83518067    -0.76030
Mg4253     Mg  0.12372073  0.26332485  0.83966151     1.57970
O4254       O  0.17404771  0.27315575  0.80992363    -0.83400
H4255       H  0.08173067  0.26789834  0.89567599    -0.07130
O4256       O  0.07329511  0.33164555  0.86040619    -0.88670
H4257       H  0.05483858  0.35295542  0.84179968    -0.06950
H4258       H  0.12963343  0.32441954  0.91239761    -0.07130
C4259       C  0.06129638  0.33600991  0.84407538     0.86420
C4260       C  0.08797587  0.27107893  0.87879050     0.87010
C4261       C  0.11606336  0.32533192  0.90020168     0.87050
H4262       H  0.13416609  0.35596522  0.80923686    -0.07110
O4263       O  0.12597631  0.30446162  0.80106698    -0.76130
Mg4264     Mg  0.09294312  0.35938232  0.86979465     1.58000
H4265       H  0.09375397  0.29690608  0.79178133    -0.07120
C4266       C  0.01824035  0.28797898  0.85573604     0.92040
O4267       O  0.05196610  0.33374851  0.91087668    -0.83360
C4268       C  0.06217016  0.35172374  0.91679558     0.92100
O4269       O  0.10234905  0.23211525  0.83231065    -0.83350
Mg4270     Mg  0.15899160  0.30915299  0.82190055     1.58180
O4271       O  0.02748119  0.30020874  0.87116312    -0.81680
O4272       O  0.19027790  0.34669601  0.86249097    -0.83380
O4273       O  0.93530564  0.28958723  0.86571734    -0.88960
C4274       C  0.90568782  0.27588739  0.80482729     0.87070
Mg4275     Mg  0.94796321  0.26469793  0.88603466     1.58150
O4276       O  0.86709916  0.28128919  0.84891192    -0.88690
O4277       O  0.90442686  0.30866326  0.87330494    -0.76020
C4278       C  0.88245251  0.17636208  0.88452238     0.92120
O4279       O  0.95456234  0.25139287  0.82936983    -0.75840
O4280       O  0.90244897  0.18255055  0.88133192    -0.83340
Mg4281     Mg  0.94591567  0.28863466  0.82997233     1.57960
C4282       C  0.80946193  0.24050840  0.85179785     0.92040
O4283       O  0.94102469  0.32485070  0.82218496    -0.81610
H4284       H  0.85031628  0.29979995  0.87166679    -0.06950
C4285       C  0.88174922  0.22039899  0.82645419     0.86980
O4286       O  0.91316447  0.25936091  0.90305506    -0.76120
O4287       O  0.91068327  0.28400169  0.82346323    -0.88880
O4288       O  0.81813261  0.25590446  0.83927579    -0.81690
C4289       C  0.85173544  0.31562618  0.80672239     0.92160
C4290       C  0.93029856  0.33694122  0.83580298     0.92010
Mg4291     Mg  0.85909309  0.22840286  0.87305342     1.57950
O4292       O  0.86545951  0.18815681  0.87736536    -0.81610
O4293       O  0.85089992  0.26605130  0.87792836    -0.75850
O4294       O  0.87242504  0.31122412  0.80582947    -0.81690
O4295       O  0.98234877  0.29380497  0.83981769    -0.83400
O4296       O  0.93515058  0.21136102  0.90434950    -0.81720
C4297       C  0.85591490  0.28326794  0.86630959     0.86440
O4298       O  0.89339517  0.23488136  0.88320094    -0.88870
O4299       O  0.86821387  0.23240766  0.83716529    -0.88970
O4300       O  0.90013445  0.21286976  0.83505469    -0.76030
Mg4301     Mg  0.88812632  0.30915316  0.83939423     1.57970
O4302       O  0.83787338  0.29924156  0.80948450    -0.83400
H4303       H  0.93003395  0.30469526  0.89545315    -0.07130
O4304       O  0.93861233  0.24090387  0.86034676    -0.88670
H4305       H  0.95712060  0.21959415  0.84179715    -0.06950
H4306       H  0.88205670  0.24814335  0.91211516    -0.07130
C4307       C  0.95063788  0.23653537  0.84403512     0.86420
C4308       C  0.92381096  0.30147728  0.87857000     0.87010
C4309       C  0.89567082  0.24721189  0.89996764     0.87050
H4310       H  0.87800723  0.21644465  0.80899654    -0.07110
O4311       O  0.88603071  0.26803773  0.80077539    -0.76130
Mg4312     Mg  0.91898277  0.21315308  0.86974680     1.58000
H4313       H  0.91825918  0.27567427  0.79156691    -0.07120
C4314       C  0.99361240  0.28461710  0.85571680     0.92040
O4315       O  0.95979006  0.23895963  0.91086145    -0.83360
C4316       C  0.94960651  0.22098973  0.91683412     0.92100
O4317       O  0.90953906  0.34038469  0.83215760    -0.83350
Mg4318     Mg  0.85296885  0.26324747  0.82151286     1.58180
O4319       O  0.98433929  0.27242668  0.87116393    -0.81680
O4320       O  0.82160674  0.22558433  0.86196899    -0.83380
O4321       O  0.33104558  0.17412599  0.20857755    -0.88960
C4322       C  0.39371203  0.14655125  0.22379663     0.87070
Mg4323     Mg  0.31513080  0.18932790  0.23930742     1.58150
O4324       O  0.35410515  0.10366658  0.21708849    -0.88690
O4325       O  0.32902865  0.14223366  0.18898643    -0.76020
C4326       C  0.32856394  0.11171520  0.31287362     0.92120
O4327       O  0.37153555  0.19120858  0.24263184    -0.75840
O4328       O  0.32489207  0.13246303  0.31635543    -0.83340
Mg4329     Mg  0.36699335  0.18315088  0.20490225     1.57960
C4330       C  0.34908933  0.04865422  0.26072166     0.92040
O4331       O  0.37162884  0.17691633  0.16466179    -0.81610
H4332       H  0.33579483  0.08516939  0.19555892    -0.06950
C4333       C  0.37175085  0.11836579  0.27786709     0.86980
O4334       O  0.29428980  0.15627530  0.24377351    -0.76120
O4335       O  0.37702938  0.14884757  0.21135581    -0.88880
O4336       O  0.36465528  0.05792583  0.24868222    -0.81690
C4337       C  0.41069235  0.09269060  0.19750132     0.92160
C4338       C  0.37872914  0.15993183  0.15282588     0.92010
Mg4339     Mg  0.32326397  0.09629694  0.26446851     1.57950
O4340       O  0.31506267  0.10105416  0.30059904    -0.81610
O4341       O  0.32302100  0.08770151  0.22721884    -0.75850
O4342       O  0.39824370  0.10714741  0.18783796    -0.81690
O4343       O  0.35604676  0.22061302  0.20208394    -0.83400
O4344       O  0.29884704  0.16969616  0.28704548    -0.81720
C4345       C  0.33784853  0.09163556  0.21253016     0.86440
O4346       O  0.31680331  0.13154261  0.25985766    -0.88870
O4347       O  0.35902821  0.10689897  0.26580806    -0.88970
O4348       O  0.36638529  0.13770764  0.28508712    -0.76030
Mg4349     Mg  0.36368850  0.12335102  0.18946067     1.57970
O4350       O  0.40466558  0.08251871  0.21546668    -0.83400
H4351       H  0.30297611  0.16438432  0.19240306    -0.07130
O4352       O  0.34230822  0.17510786  0.25758603    -0.88670
H4353       H  0.36498215  0.19175423  0.27632616    -0.06950
H4354       H  0.28498074  0.12402209  0.25118441    -0.07130
C4355       C  0.35974079  0.18621254  0.25973614     0.86420
C4356       C  0.32040192  0.16061947  0.19647405     0.87010
C4357       C  0.29825027  0.13658185  0.25157773     0.87050
H4358       H  0.38861005  0.11215493  0.28122773    -0.07110
O4359       O  0.39669649  0.12905429  0.23595765    -0.76130
Mg4360     Mg  0.33246381  0.15399843  0.28527440     1.58000
H4361       H  0.40586316  0.16015785  0.22482629    -0.07120
C4362       C  0.34579594  0.23278313  0.21692175     0.92040
O4363       O  0.30270996  0.20429580  0.27525918    -0.83360
C4364       C  0.29965929  0.19036884  0.29154443     0.92100
O4365       O  0.37547556  0.13993432  0.15896979    -0.83350
Mg4366     Mg  0.37960175  0.09428352  0.24107861     1.58180
O4367       O  0.33309162  0.22416072  0.23220514    -0.81680
O4368       O  0.33305996  0.05989795  0.26969161    -0.83380
O4369       O  0.33116901  0.89849844  0.31626246    -0.88960
C4370       C  0.39382990  0.92628697  0.30134502     0.87070
Mg4371     Mg  0.31545868  0.88330204  0.28547861     1.58150
O4372       O  0.35405233  0.96903429  0.30784611    -0.88690
O4373       O  0.32894202  0.93037811  0.33584206    -0.76020
C4374       C  0.32912833  0.96087307  0.21192507     0.92120
O4375       O  0.37189734  0.88152619  0.28237867    -0.75840
O4376       O  0.32552363  0.94011251  0.20844508    -0.83340
Mg4377     Mg  0.36711193  0.88956175  0.32007204     1.57960
C4378       C  0.34912172  0.02404851  0.26417079     0.92040
O4379       O  0.37143155  0.89579942  0.36030297    -0.81610
H4380       H  0.33557602  0.98748194  0.32927156    -0.06950
C4381       C  0.37213201  0.95440677  0.24718215     0.86980
O4382       O  0.29458479  0.91630491  0.28092406    -0.76120
O4383       O  0.37707806  0.92391685  0.31368562    -0.88880
O4384       O  0.36463534  0.01483477  0.27631411    -0.81690
C4385       C  0.41049072  0.98021264  0.32774662     0.92160
C4386       C  0.37849845  0.91278176  0.37215991     0.92010
Mg4387     Mg  0.32349724  0.97632449  0.26028514     1.57950
O4388       O  0.31552467  0.97150696  0.22410710    -0.81610
O4389       O  0.32301288  0.98494213  0.29753043    -0.75850
O4390       O  0.39803768  0.96569378  0.33732469    -0.81690
O4391       O  0.35625664  0.85203424  0.32279633    -0.83400
O4392       O  0.29944314  0.90287445  0.23773415    -0.81720
C4393       C  0.33774711  0.98102608  0.31231181     0.86440
O4394       O  0.31712307  0.94107757  0.26490662    -0.88870
O4395       O  0.35929775  0.96583916  0.25915255    -0.88970
O4396       O  0.36686655  0.93504317  0.23994015    -0.76030
Mg4397     Mg  0.36354407  0.94936535  0.33552217     1.57970
O4398       O  0.40453255  0.99038079  0.30976036    -0.83400
H4399       H  0.30298956  0.90811595  0.33231475    -0.07130
O4400       O  0.34271952  0.89760025  0.26734150    -0.88670
H4401       H  0.36547898  0.88100936  0.24866038    -0.06950
H4402       H  0.28525357  0.94853048  0.27345448    -0.07130
C4403       C  0.36016734  0.88652207  0.26523882     0.86420
C4404       C  0.32042041  0.91195508  0.32832213     0.87010
C4405       C  0.29854454  0.93600055  0.27311896     0.87050
H4406       H  0.38899412  0.96067476  0.24391830    -0.07110
O4407       O  0.39683697  0.94380909  0.28922073    -0.76130
Mg4408     Mg  0.33298626  0.91865410  0.23959694     1.58000
H4409       H  0.40603079  0.91272724  0.30037589    -0.07120
C4410       C  0.34606971  0.83989040  0.30788856     0.92040
O4411       O  0.30329458  0.86828658  0.24953783    -0.83360
C4412       C  0.30037970  0.88221149  0.23324184     0.92100
O4413       O  0.37522475  0.93278501  0.36604853    -0.83350
Mg4414     Mg  0.37966545  0.97852496  0.28400465     1.58180
O4415       O  0.33341494  0.84853735  0.29259676    -0.81680
O4416       O  0.33319868  0.01274330  0.25508607    -0.83380
O4417       O  0.36662386  0.23312985  0.68739459    -0.88960
C4418       C  0.39455888  0.24799769  0.62483513     0.87070
Mg4419     Mg  0.35148499  0.26398409  0.70302956     1.58150
O4420       O  0.43718550  0.24134743  0.66472365    -0.88690
O4421       O  0.39840466  0.21340235  0.68971360    -0.76020
C4422       C  0.42920679  0.33739038  0.68954867     0.92120
O4423       O  0.34980334  0.26705010  0.64661726    -0.75840
O4424       O  0.40844765  0.34087448  0.69314896    -0.83340
Mg4425     Mg  0.35774740  0.22933928  0.65142941     1.57960
C4426       C  0.49238143  0.28483279  0.66971514     0.92040
O4427       O  0.36388554  0.18910596  0.64706798    -0.81610
H4428       H  0.45550674  0.21989266  0.68329789    -0.06950
C4429       C  0.42284379  0.30208791  0.64656261     0.86980
O4430       O  0.38444615  0.26847426  0.72399401    -0.76120
O4431       O  0.39212516  0.23564391  0.64156795    -0.88880
O4432       O  0.48313452  0.27269497  0.65421778    -0.81690
C4433       C  0.44834696  0.22146580  0.60826108     0.92160
C4434       C  0.38083884  0.17723008  0.63996761     0.92010
Mg4435     Mg  0.44460112  0.28896076  0.69523742     1.57950
O4436       O  0.43984786  0.32518868  0.70313957    -0.81610
O4437       O  0.45307645  0.25167572  0.69577473    -0.75850
O4438       O  0.43380304  0.21191903  0.62069935    -0.81690
O4439       O  0.32021883  0.22667754  0.66220456    -0.83400
O4440       O  0.37112594  0.31168000  0.71905503    -0.81720
C4441       C  0.44912209  0.23687285  0.68107086     0.86440
O4442       O  0.40932371  0.28444410  0.70153946    -0.88870
O4443       O  0.43418479  0.29006955  0.65943463    -0.88970
O4444       O  0.40348589  0.30939425  0.65175888    -0.76030
Mg4445     Mg  0.41746947  0.21371364  0.65515518     1.57970
O4446       O  0.45861069  0.23938175  0.61426344    -0.83400
H4447       H  0.37607552  0.21701014  0.71559553    -0.07130
O4448       O  0.36591540  0.28204723  0.67579017    -0.88670
H4449       H  0.34939526  0.30077348  0.65301225    -0.06950
H4450       H  0.41666076  0.27587416  0.73343035    -0.07130
C4451       C  0.35485407  0.28418019  0.65833491     0.86420
C4452       C  0.37999035  0.22100148  0.69818138     0.87010
C4453       C  0.40417204  0.27623860  0.72009953     0.87050
H4454       H  0.42918443  0.30533765  0.62972708    -0.07110
O4455       O  0.41211782  0.26008075  0.62187717    -0.76130
Mg4456     Mg  0.38698688  0.30976833  0.68558292     1.58000
H4457       H  0.38102241  0.24901877  0.61261059    -0.07120
C4458       C  0.30809528  0.24160689  0.67237262     0.92040
O4459       O  0.33651783  0.30000339  0.71506806    -0.83360
C4460       C  0.35048968  0.31625633  0.71800566     0.92100
O4461       O  0.40085789  0.18323542  0.64334985    -0.83350
Mg4462     Mg  0.44681693  0.26515855  0.63912008     1.58180
O4463       O  0.31675257  0.25690399  0.68501240    -0.81680
O4464       O  0.48108628  0.29402108  0.68558727    -0.83380
O4465       O  0.64270940  0.33990583  0.68788126    -0.88960
C4466       C  0.61498550  0.32510125  0.62522205     0.87070
Mg4467     Mg  0.65784172  0.30904957  0.70353274     1.58150
O4468       O  0.57219115  0.33168040  0.66496406    -0.88690
O4469       O  0.61088628  0.35958495  0.69009840    -0.76020
C4470       C  0.58010002  0.23563821  0.68966856     0.92120
O4471       O  0.65971727  0.30606816  0.64712313    -0.75840
O4472       O  0.60085715  0.23213142  0.69328229    -0.83340
Mg4473     Mg  0.65172514  0.34376370  0.65195560     1.57960
C4474       C  0.51701042  0.28817072  0.66975268     0.92040
O4475       O  0.64555640  0.38399954  0.64764665    -0.81610
H4476       H  0.55381567  0.35310633  0.68351173    -0.06950
C4477       C  0.58663453  0.27099446  0.64679803     0.86980
O4478       O  0.62481280  0.30445627  0.72438459    -0.76120
O4479       O  0.61736439  0.33743811  0.64196850    -0.88880
O4480       O  0.52630319  0.30031182  0.65427863    -0.81690
C4481       C  0.56117798  0.35159761  0.60847926     0.92160
C4482       C  0.62861759  0.39586285  0.64048886     0.92010
Mg4483     Mg  0.56472601  0.28403416  0.69543041     1.57950
O4484       O  0.56944908  0.24780033  0.70328160    -0.81610
O4485       O  0.55624615  0.32131561  0.69598521    -0.75850
O4486       O  0.57569508  0.36115028  0.62094390    -0.81690
O4487       O  0.68925556  0.34643960  0.66285627    -0.83400
O4488       O  0.63823491  0.26123233  0.71938485    -0.81720
C4489       C  0.56021542  0.33613171  0.68128996     0.86440
O4490       O  0.60000374  0.28852935  0.70183610    -0.88870
O4491       O  0.57524573  0.28297648  0.65965735    -0.88970
O4492       O  0.60599315  0.26371407  0.65202448    -0.76030
Mg4493     Mg  0.59193777  0.35932439  0.65547449     1.57970
O4494       O  0.55091497  0.33367372  0.61446401    -0.83400
H4495       H  0.63311021  0.35595888  0.71606479    -0.07130
O4496       O  0.64352410  0.29099612  0.67622529    -0.88670
H4497       H  0.66013735  0.27233271  0.65347023    -0.06950
H4498       H  0.59258291  0.29699275  0.73373372    -0.07130
C4499       C  0.65464481  0.28890951  0.65880052     0.86420
C4500       C  0.62927618  0.35199422  0.69862961     0.87010
C4501       C  0.60510474  0.29668134  0.72042799     0.87050
H4502       H  0.58034162  0.26776795  0.62994331    -0.07110
O4503       O  0.59743136  0.31302732  0.62219999    -0.76130
Mg4504     Mg  0.62240084  0.26324885  0.68588449     1.58000
H4505       H  0.62856136  0.32409283  0.61303846    -0.07120
C4506       C  0.70136099  0.33150205  0.67304632     0.92040
O4507       O  0.67282515  0.27306212  0.71557896    -0.83360
C4508       C  0.65890203  0.25674500  0.71839202     0.92100
O4509       O  0.60859122  0.38981993  0.64377025    -0.83350
Mg4510     Mg  0.56266557  0.30789318  0.63932079     1.58180
O4511       O  0.69265727  0.31618793  0.68564511    -0.81680
O4512       O  0.52825700  0.27899267  0.68566886    -0.83380
O4513       O  0.14246538  0.23306976  0.33748696    -0.88960
C4514       C  0.11512188  0.24820985  0.40027383     0.87070
Mg4515     Mg  0.15779056  0.26380083  0.32165121     1.58150
O4516       O  0.07216694  0.24178038  0.36072635    -0.88690
O4517       O  0.11049993  0.21357684  0.33550742    -0.76020
C4518       C  0.08057655  0.33762564  0.33554262     0.92120
O4519       O  0.15986706  0.26688960  0.37805022    -0.75840
O4520       O  0.10134501  0.34107540  0.33193268    -0.83340
Mg4521     Mg  0.15158515  0.22922147  0.37339150     1.57960
C4522       C  0.01737514  0.28550299  0.35579048     0.92040
O4523       O  0.14510858  0.18900255  0.37794670    -0.81610
H4524       H  0.05358151  0.22038124  0.34235125    -0.06950
C4525       C  0.08711079  0.30243102  0.37856096     0.86980
O4526       O  0.12476016  0.26850345  0.30088049    -0.76120
O4527       O  0.11733456  0.23580352  0.38355514    -0.88880
O4528       O  0.02660804  0.27339927  0.37131934    -0.81690
C4529       C  0.06116768  0.22211760  0.41732820     0.92160
C4530       C  0.12807829  0.17725714  0.38512352     0.92010
Mg4531     Mg  0.06499270  0.28929199  0.33003505     1.57950
O4532       O  0.06992044  0.32543210  0.32196480    -0.81610
O4533       O  0.05625169  0.25207278  0.32967705    -0.75850
O4534       O  0.07558162  0.21242646  0.40485045    -0.81690
O4535       O  0.18902638  0.22627101  0.36228058    -0.83400
O4536       O  0.13839088  0.31168190  0.30568534    -0.81720
C4537       C  0.06011921  0.23732158  0.34445796     0.86440
O4538       O  0.10017550  0.28458639  0.32354333    -0.88870
O4539       O  0.07560424  0.29046188  0.36579039    -0.88970
O4540       O  0.10649307  0.30958720  0.37323313    -0.76030
Mg4541     Mg  0.09169620  0.21405254  0.37022146     1.57970
O4542       O  0.05102868  0.24009547  0.41130623    -0.83400
H4543       H  0.13260582  0.21699629  0.30940447    -0.07130
O4544       O  0.14371939  0.28201909  0.34895398    -0.88670
H4545       H  0.16054539  0.30060626  0.37161882    -0.06950
H4546       H  0.09253187  0.27613566  0.29169591    -0.07130
C4547       C  0.15490271  0.28405925  0.36634363     0.86420
C4548       C  0.12889196  0.22103583  0.32684802     0.87010
C4549       C  0.10512459  0.27638965  0.30493258     0.87050
H4550       H  0.08089994  0.30575076  0.39542901    -0.07110
O4551       O  0.09767783  0.26042568  0.40333058    -0.76130
Mg4552     Mg  0.12274016  0.30985118  0.33929545     1.58000
H4553       H  0.12875448  0.24915444  0.41239741    -0.07120
C4554       C  0.20120750  0.24113122  0.35205054     0.92040
O4555       O  0.17293838  0.29973815  0.30941406    -0.83360
C4556       C  0.15907848  0.31610162  0.30654729     0.92100
O4557       O  0.10810395  0.18346441  0.38189360    -0.83350
Mg4558     Mg  0.06290451  0.26571251  0.38628730     1.58180
O4559       O  0.19258846  0.25649533  0.33946234    -0.81680
O4560       O  0.02864467  0.29457487  0.33983313    -0.83380
O4561       O  0.86739541  0.34079408  0.33751721    -0.88960
C4562       C  0.89494698  0.32586612  0.40024832     0.87070
Mg4563     Mg  0.85226174  0.31002508  0.32169764     1.58150
O4564       O  0.93779850  0.33244824  0.36058101    -0.88690
O4565       O  0.89924680  0.36045147  0.33539713    -0.76020
C4566       C  0.92976037  0.23651180  0.33547087     0.92120
O4567       O  0.85034331  0.30680647  0.37812943    -0.75840
O4568       O  0.90902165  0.23300653  0.33175889    -0.83340
Mg4569     Mg  0.85833488  0.34452718  0.37344371     1.57960
C4570       C  0.99278191  0.28888527  0.35576046     0.92040
O4571       O  0.86454420  0.38475646  0.37789289    -0.81610
H4572       H  0.95629010  0.35390653  0.34216407    -0.06950
C4573       C  0.92310718  0.27173449  0.37851208     0.86980
O4574       O  0.88530855  0.30555669  0.30087610    -0.76120
O4575       O  0.89264566  0.33820814  0.38349105    -0.88880
O4576       O  0.98350845  0.30099777  0.37125070    -0.81690
C4577       C  0.94879904  0.35226766  0.41707856     0.92160
C4578       C  0.88150480  0.39661914  0.38502170     0.92010
Mg4579     Mg  0.94519319  0.28492223  0.32997551     1.57950
O4580       O  0.94045138  0.24873541  0.32193707    -0.81610
O4581       O  0.95377761  0.32218121  0.32955804    -0.75850
O4582       O  0.93433075  0.36186849  0.40459530    -0.81690
O4583       O  0.82082729  0.34717006  0.36251278    -0.83400
O4584       O  0.87185977  0.26232430  0.30562574    -0.81720
C4585       C  0.94983026  0.33693931  0.34430452     0.86440
O4586       O  0.90998704  0.28949242  0.32346337    -0.88870
O4587       O  0.93456324  0.28375658  0.36573711    -0.88970
O4588       O  0.90379326  0.26442391  0.37315374    -0.76030
Mg4589     Mg  0.91812259  0.36009551  0.37004599     1.57970
O4590       O  0.95897727  0.33429359  0.41112147    -0.83400
H4591       H  0.87705875  0.35692468  0.30939033    -0.07130
O4592       O  0.86647782  0.29183771  0.34894689    -0.88670
H4593       H  0.84985352  0.27310078  0.37165158    -0.06950
H4594       H  0.91756647  0.29810598  0.29163690    -0.07130
C4595       C  0.85536709  0.28969439  0.36637488     0.86420
C4596       C  0.88085896  0.35290655  0.32682108     0.87010
C4597       C  0.90498469  0.29774142  0.30488421     0.87050
H4598       H  0.92931044  0.26846637  0.39539302    -0.07110
O4599       O  0.91244156  0.31372745  0.40329733    -0.76130
Mg4600     Mg  0.88753363  0.26412497  0.33921785     1.58000
H4601       H  0.88134428  0.32490006  0.41240859    -0.07120
C4602       C  0.80877872  0.33218644  0.35231967     0.92040
O4603       O  0.83726776  0.27411597  0.30942177    -0.83360
C4604       C  0.85119137  0.25782609  0.30651898     0.92100
O4605       O  0.90152326  0.39059131  0.38170433    -0.83350
Mg4606     Mg  0.94718733  0.30857937  0.38618985     1.58180
O4607       O  0.81751085  0.31698048  0.33963682    -0.81680
O4608       O  0.98154980  0.27977563  0.33980671    -0.83380
loop_ 
_geom_bond_atom_site_label_1 
_geom_bond_atom_site_label_2 
_geom_bond_distance 
_geom_bond_site_symmetry_2 
_ccdc_geom_bond_type 
O1           Mg3   2.236       .  S
O1           Mg9   2.204       .  S
O1           C36   1.245       .  S
C2           O15   1.239       .  S
C2           O39   1.273       .  A
C2           H41   1.081       .  S
Mg3          O32   2.114       .  S
Mg3          O47   2.353       .  S
Mg3          O43   2.418       .  S
Mg3          O14   2.326       .  S
O4          Mg46   2.144       .  S
O4          Mg29   2.086       .  S
O4           C25   1.227       .  S
O5           C36   1.281       .  A
O5          Mg29   2.336       .  S
C6            O8   1.264       .  A
C6           O20   1.251       .  A
C6         C1292   1.457       .  S
O7           C35   1.264       .  A
O7           Mg9   2.299       .  S
O8          Mg40   2.281       .  S
Mg9          O15   2.151       .  S
Mg9          O23   2.318       .  S
Mg9          O11   2.425       .  S
C10          O48   1.275       .  A
C10          O16   1.287       .  A
C10          C58   1.470       .  S
O11          C18   1.295       .  A
H12          C25   1.082       .  S
C13          O27   1.240       .  S
C13          O28   1.263       .  A
C13          H38   1.082       .  S
O14          C37   1.275       .  A
O15         Mg29   2.140       .  S
O16         Mg46   2.370       .  S
C17          O30   1.272       .  A
C17          O22   1.266       .  A
C17        C1314   1.456       .  S
C18          O45   1.253       .  A
C18        C4482   1.486       .  S
Mg19         O26   2.136       .  S
Mg19         O27   2.208       .  S
Mg19         O20   2.210       .  S
Mg19         O21   2.263       .  S
Mg19         O48   2.250       .  S
O21          C25   1.257       .  A
O22         Mg29   2.263       .  S
O23          C42   1.288       .  A
O24          C44   1.253       .  A
O24         Mg40   2.196       .  S
O26         Mg40   2.211       .  S
O26          C37   1.239       .  S
O27         Mg46   2.044       .  S
O28         Mg40   2.227       .  S
Mg29         O45   2.168       .  S
O30         Mg46   2.229       .  S
H31          C36   1.082       .  S
O32         Mg40   2.140       .  S
O32          C35   1.230       .  S
H33          C35   1.081       .  S
H34          C37   1.081       .  S
O39         Mg46   2.314       .  S
C42          O47   1.281       .  A
C42         C881   1.482       .  S
O43          C44   1.280       .  A
C44        C1738   1.482       .  S
O49         Mg51   2.236       .  S
O49         Mg57   2.204       .  S
O49          C84   1.245       .  S
C50          O63   1.239       .  S
C50          O87   1.274       .  A
C50          H89   1.081       .  S
Mg51         O80   2.114       .  S
Mg51         O95   2.355       .  S
Mg51         O91   2.418       .  S
Mg51         O62   2.326       .  S
O52         Mg94   2.144       .  S
O52         Mg77   2.084       .  S
O52          C73   1.227       .  S
O53          C84   1.281       .  A
O53         Mg77   2.337       .  S
C54          O56   1.264       .  A
C54          O68   1.251       .  A
C54        C1340   1.457       .  S
O55          C83   1.264       .  A
O55         Mg57   2.299       .  S
O56         Mg88   2.282       .  S
Mg57         O63   2.152       .  S
Mg57         O71   2.319       .  S
Mg57         O59   2.425       .  S
C58          O96   1.275       .  A
C58          O64   1.287       .  A
O59          C66   1.295       .  A
H60          C73   1.082       .  S
C61          O75   1.240       .  S
C61          O76   1.263       .  A
C61          H86   1.082       .  S
O62          C85   1.275       .  A
O63         Mg77   2.141       .  S
O64         Mg94   2.369       .  S
C65          O78   1.272       .  A
C65          O70   1.266       .  A
C65        C1266   1.457       .  S
C66          O93   1.253       .  A
C66        C4578   1.486       .  S
Mg67         O74   2.136       .  S
Mg67         O75   2.209       .  S
Mg67         O68   2.209       .  S
Mg67         O69   2.262       .  S
Mg67         O96   2.251       .  S
O69          C73   1.257       .  A
O70         Mg77   2.264       .  S
O71          C90   1.288       .  A
O72          C92   1.253       .  A
O72         Mg88   2.197       .  S
O74         Mg88   2.211       .  S
O74          C85   1.239       .  S
O75         Mg94   2.044       .  S
O76         Mg88   2.227       .  S
Mg77         O93   2.167       .  S
O78         Mg94   2.230       .  S
H79          C84   1.082       .  S
O80         Mg88   2.140       .  S
O80          C83   1.230       .  S
H81          C83   1.081       .  S
H82          C85   1.081       .  S
O87         Mg94   2.314       .  S
C90          O95   1.282       .  A
C90        C1457   1.483       .  S
O91          C92   1.281       .  A
C92         C106   1.482       .  S
O97         Mg99   2.045       .  S
O97        Mg105   2.209       .  S
O97         C132   1.240       .  S
C98         O111   1.239       .  S
C98         O135   1.275       .  A
C98         H137   1.081       .  S
Mg99        O128   2.144       .  S
Mg99        O143   2.370       .  S
Mg99        O139   2.232       .  S
Mg99        O110   2.314       .  S
O100       Mg142   2.113       .  S
O100       Mg125   2.140       .  S
O100        C121   1.230       .  S
O101        C132   1.263       .  A
O101       Mg125   2.227       .  S
C102        O104   1.253       .  A
C102        O116   1.296       .  A
C102       C1302   1.487       .  S
O103        C131   1.257       .  A
O103       Mg105   2.262       .  S
O104       Mg136   2.168       .  S
Mg105       O111   2.136       .  S
Mg105       O119   2.250       .  S
Mg105       O107   2.210       .  S
C106        O144   1.288       .  A
C106        O112   1.281       .  A
O107        C114   1.251       .  A
H108        C121   1.081       .  S
C109        O123   1.245       .  S
C109        O124   1.281       .  A
C109        H134   1.082       .  S
O110        C133   1.273       .  A
O111       Mg125   2.211       .  S
O112       Mg142   2.354       .  S
C113        O126   1.281       .  A
C113        O118   1.253       .  A
C113       C1674   1.483       .  S
C114        O141   1.264       .  A
C114        C593   1.457       .  S
Mg115       O122   2.151       .  S
Mg115       O123   2.204       .  S
Mg115       O116   2.427       .  S
Mg115       O117   2.299       .  S
Mg115       O144   2.318       .  S
O117        C121   1.264       .  A
O118       Mg125   2.198       .  S
O119        C138   1.275       .  A
O120        C140   1.266       .  A
O120       Mg136   2.263       .  S
O122       Mg136   2.140       .  S
O122        C133   1.239       .  S
O123       Mg142   2.237       .  S
O124       Mg136   2.336       .  S
Mg125       O141   2.282       .  S
O126       Mg142   2.419       .  S
H127        C132   1.082       .  S
O128       Mg136   2.085       .  S
O128        C131   1.227       .  S
H129        C131   1.082       .  S
H130        C133   1.081       .  S
O135       Mg142   2.326       .  S
C138        O143   1.287       .  A
C138        C186   1.470       .  S
O139        C140   1.273       .  A
C140        C630   1.457       .  S
O145       Mg147   2.045       .  S
O145       Mg153   2.209       .  S
O145        C180   1.240       .  S
C146        O159   1.239       .  S
C146        O183   1.275       .  A
C146        H185   1.081       .  S
Mg147       O176   2.144       .  S
Mg147       O191   2.369       .  S
Mg147       O187   2.231       .  S
Mg147       O158   2.313       .  S
O148       Mg190   2.113       .  S
O148       Mg173   2.141       .  S
O148        C169   1.230       .  S
O149        C180   1.263       .  A
O149       Mg173   2.227       .  S
C150        O152   1.253       .  A
C150        O164   1.295       .  A
C150       C1878   1.486       .  S
O151        C179   1.257       .  A
O151       Mg153   2.262       .  S
O152       Mg184   2.168       .  S
Mg153       O159   2.137       .  S
Mg153       O167   2.251       .  S
Mg153       O155   2.210       .  S
C154        O192   1.288       .  A
C154        O160   1.282       .  A
C154       C2588   1.483       .  S
O155        C162   1.251       .  A
H156        C169   1.081       .  S
C157        O171   1.245       .  S
C157        O172   1.281       .  A
C157        H182   1.082       .  S
O158        C181   1.273       .  A
O159       Mg173   2.211       .  S
O160       Mg190   2.357       .  S
C161        O174   1.281       .  A
C161        O166   1.253       .  A
C161       C3834   1.483       .  S
C162        O189   1.264       .  A
C162        C641   1.457       .  S
Mg163       O170   2.151       .  S
Mg163       O171   2.204       .  S
Mg163       O164   2.425       .  S
Mg163       O165   2.299       .  S
Mg163       O192   2.317       .  S
O165        C169   1.264       .  A
O166       Mg173   2.198       .  S
O167        C186   1.275       .  A
O168        C188   1.266       .  A
O168       Mg184   2.263       .  S
O170       Mg184   2.141       .  S
O170        C181   1.239       .  S
O171       Mg190   2.237       .  S
O172       Mg184   2.336       .  S
Mg173       O189   2.282       .  S
O174       Mg190   2.420       .  S
H175        C180   1.082       .  S
O176       Mg184   2.085       .  S
O176        C179   1.227       .  S
H177        C179   1.082       .  S
H178        C181   1.081       .  S
O183       Mg190   2.327       .  S
C186        O191   1.287       .  A
O187        C188   1.272       .  A
C188        C582   1.457       .  S
O193       Mg195   2.045       .  S
O193       Mg201   2.209       .  S
O193        C228   1.240       .  S
C194        O207   1.239       .  S
C194        O231   1.275       .  A
C194        H233   1.081   1_565  S
Mg195       O224   2.145       .  S
Mg195       O239   2.370       .  S
Mg195       O235   2.232       .  S
Mg195       O206   2.313       .  S
O196       Mg238   2.114       .  S
O196       Mg221   2.140       .  S
O196        C217   1.230       .  S
O197        C228   1.263       .  A
O197       Mg221   2.227       .  S
C198        O200   1.253       .  A
C198        O212   1.296       .  A
C198       C1014   1.487       .  S
O199        C227   1.257       .  A
O199       Mg201   2.263       .  S
O200       Mg232   2.169       .  S
Mg201       O207   2.138       .  S
Mg201       O215   2.253       .  S
Mg201       O203   2.212       .  S
C202        O240   1.288       .  A
C202        O208   1.281       .  A
C202       C1628   1.482       .  S
O203        C210   1.251       .  A
H204        C217   1.081       .  S
C205        O219   1.245       .  S
C205        O220   1.281       .  A
C205        H230   1.082       .  S
O206        C229   1.273       .  A
O207       Mg221   2.211       .  S
O208       Mg238   2.353       .  S
C209        O222   1.280       .  A
C209        O214   1.253       .  A
C209       C2442   1.482       .  S
C210        O237   1.264       .  A
C210        C401   1.457       .  S
Mg211       O218   2.151       .  S
Mg211       O219   2.204       .  S
Mg211       O212   2.425       .  S
Mg211       O213   2.299       .  S
Mg211       O240   2.319       .  S
O213        C217   1.264       .  A
O214       Mg221   2.198       .  S
O215        C234   1.275       .  A
O216        C236   1.266       .  A
O216       Mg232   2.262       .  S
O218       Mg232   2.141       .  S
O218        C229   1.239       .  S
O219       Mg238   2.237       .  S
O220       Mg232   2.336       .  S
Mg221       O237   2.282       .  S
O222       Mg238   2.416       .  S
H223        C228   1.082       .  S
O224       Mg232   2.086       .  S
O224        C227   1.227       .  S
H225        C227   1.082       .  S
H226        C229   1.081       .  S
O231       Mg238   2.327       .  S
C234        O239   1.287       .  A
C234        C282   1.471       .  S
O235        C236   1.273       .  A
C236        C438   1.457       .  S
O241       Mg243   2.046       .  S
O241       Mg249   2.209       .  S
O241        C276   1.240       .  S
C242        O255   1.239       .  S
C242        O279   1.275       .  A
C242        H281   1.081   1_565  S
Mg243       O272   2.146       .  S
Mg243       O287   2.369       .  S
Mg243       O283   2.232       .  S
Mg243       O254   2.312       .  S
O244       Mg286   2.113       .  S
O244       Mg269   2.141       .  S
O244        C265   1.230       .  S
O245        C276   1.263       .  A
O245       Mg269   2.228       .  S
C246        O248   1.253       .  A
C246        O260   1.296       .  A
C246       C1110   1.487       .  S
O247        C275   1.257       .  A
O247       Mg249   2.263       .  S
O248       Mg280   2.169       .  S
Mg249       O255   2.139       .  S
Mg249       O263   2.254       .  S
Mg249       O251   2.212       .  S
C250        O288   1.288       .  A
C250        O256   1.282       .  A
C250       C1724   1.482       .  S
O251        C258   1.251       .  A
H252        C265   1.081       .  S
C253        O267   1.245       .  S
C253        O268   1.281       .  A
C253        H278   1.082       .  S
O254        C277   1.273       .  A
O255       Mg269   2.211       .  S
O256       Mg286   2.356       .  S
C257        O270   1.281       .  A
C257        O262   1.253       .  A
C257       C3258   1.483       .  S
C258        O285   1.264       .  A
C258        C449   1.456       .  S
Mg259       O266   2.149       .  S
Mg259       O267   2.204       .  S
Mg259       O260   2.425       .  S
Mg259       O261   2.299       .  S
Mg259       O288   2.316       .  S
O261        C265   1.264       .  A
O262       Mg269   2.197       .  S
O263        C282   1.275       .  A
O264        C284   1.266       .  A
O264       Mg280   2.260       .  S
O266       Mg280   2.141       .  S
O266        C277   1.239       .  S
O267       Mg286   2.237       .  S
O268       Mg280   2.336       .  S
Mg269       O285   2.281       .  S
O270       Mg286   2.419       .  S
H271        C276   1.082       .  S
O272       Mg280   2.086       .  S
O272        C275   1.227       .  S
H273        C275   1.082       .  S
H274        C277   1.081       .  S
O279       Mg286   2.328       .  S
C282        O287   1.287       .  A
O283        C284   1.273       .  A
C284        C390   1.457       .  S
O289       Mg291   2.044       .  S
O289       Mg297   2.208       .  S
O289        C324   1.240       .  S
C290        O303   1.239       .  S
C290        O327   1.275       .  A
C290        H329   1.081       .  S
Mg291       O320   2.146       .  S
Mg291       O335   2.369       .  S
Mg291       O331   2.231       .  S
Mg291       O302   2.312       .  S
O292       Mg334   2.114       .  S
O292       Mg317   2.140       .  S
O292        C313   1.230       .  S
O293        C324   1.263       .  A
O293       Mg317   2.227       .  S
C294        O296   1.253       .  A
C294        O308   1.296       .  A
C294       C2166   1.487       .  S
O295        C323   1.257       .  A
O295       Mg297   2.263       .  S
O296       Mg328   2.170       .  S
Mg297       O303   2.137       .  S
Mg297       O311   2.253       .  S
Mg297       O299   2.212       .  S
C298        O336   1.288       .  A
C298        O304   1.281       .  A
C298       C3164   1.482       .  S
O299        C306   1.251       .  A
H300        C313   1.081       .  S
C301        O315   1.245       .  S
C301        O316   1.281       .  A
C301        H326   1.082       .  S
O302        C325   1.273       .  A
O303       Mg317   2.211       .  S
O304       Mg334   2.353       .  S
C305        O318   1.280       .  A
C305        O310   1.253       .  A
C305       C2538   1.482       .  S
C306        O333   1.264       .  A
C306        C689   1.457       .  S
Mg307       O314   2.149       .  S
Mg307       O315   2.204       .  S
Mg307       O308   2.425       .  S
Mg307       O309   2.299       .  S
Mg307       O336   2.318       .  S
O309        C313   1.264       .  A
O310       Mg317   2.196       .  S
O311        C330   1.275       .  A
O312        C332   1.266       .  A
O312       Mg328   2.261       .  S
O314       Mg328   2.140       .  S
O314        C325   1.239       .  S
O315       Mg334   2.236       .  S
O316       Mg328   2.336       .  S
Mg317       O333   2.281       .  S
O318       Mg334   2.416       .  S
H319        C324   1.082       .  S
O320       Mg328   2.087       .  S
O320        C323   1.227       .  S
H321        C323   1.082       .  S
H322        C325   1.081       .  S
O327       Mg334   2.327       .  S
C330        O335   1.287       .  A
C330        C378   1.470       .  S
O331        C332   1.272       .  A
C332        C726   1.457       .  S
O337       Mg339   2.044       .  S
O337       Mg345   2.208       .  S
O337        C372   1.240       .  S
C338        O351   1.239       .  S
C338        O375   1.275       .  A
C338        H377   1.081       .  S
Mg339       O368   2.145       .  S
Mg339       O383   2.369       .  S
Mg339       O379   2.231       .  S
Mg339       O350   2.313       .  S
O340       Mg382   2.114       .  S
O340       Mg365   2.140       .  S
O340        C361   1.230       .  S
O341        C372   1.263       .  A
O341       Mg365   2.227       .  S
C342        O344   1.253       .  A
C342        O356   1.295       .  A
C342       C2934   1.486       .  S
O343        C371   1.257       .  A
O343       Mg345   2.263       .  S
O344       Mg376   2.169       .  S
Mg345       O351   2.137       .  S
Mg345       O359   2.252       .  S
Mg345       O347   2.212       .  S
C346        O384   1.288       .  A
C346        O352   1.281       .  A
C346       C2492   1.482   1_565  S
O347        C354   1.251       .  A
H348        C361   1.081       .  S
C349        O363   1.245       .  S
C349        O364   1.281       .  A
C349        H374   1.082       .  S
O350        C373   1.273       .  A
O351       Mg365   2.211       .  S
O352       Mg382   2.352       .  S
C353        O366   1.280       .  A
C353        O358   1.253       .  A
C353       C3546   1.481       .  S
C354        O381   1.264       .  A
C354        C737   1.457       .  S
Mg355       O362   2.150       .  S
Mg355       O363   2.204       .  S
Mg355       O356   2.423       .  S
Mg355       O357   2.298       .  S
Mg355       O384   2.318       .  S
O357        C361   1.264       .  A
O358       Mg365   2.195       .  S
O359        C378   1.275       .  A
O360        C380   1.266       .  A
O360       Mg376   2.261       .  S
O362       Mg376   2.141       .  S
O362        C373   1.239       .  S
O363       Mg382   2.235       .  S
O364       Mg376   2.336       .  S
Mg365       O381   2.282       .  S
O366       Mg382   2.415       .  S
H367        C372   1.082       .  S
O368       Mg376   2.087       .  S
O368        C371   1.227       .  S
H369        C371   1.082       .  S
H370        C373   1.081       .  S
O375       Mg382   2.327       .  S
C378        O383   1.287       .  A
O379        C380   1.272       .  A
C380        C678   1.457       .  S
O385       Mg387   2.237       .  S
O385       Mg393   2.204       .  S
O385        C420   1.245       .  S
C386        O399   1.239       .  S
C386        O423   1.274       .  A
C386        H425   1.081       .  S
Mg387       O416   2.114       .  S
Mg387       O431   2.355       .  S
Mg387       O427   2.418       .  S
Mg387       O398   2.327       .  S
O388       Mg430   2.145       .  S
O388       Mg413   2.086       .  S
O388        C409   1.227       .  S
O389        C420   1.281       .  A
O389       Mg413   2.336       .  S
C390        O392   1.264       .  A
C390        O404   1.251       .  A
O391        C419   1.264       .  A
O391       Mg393   2.299       .  S
O392       Mg424   2.282       .  S
Mg393       O399   2.151       .  S
Mg393       O407   2.319       .  S
Mg393       O395   2.425       .  S
C394        O432   1.275       .  A
C394        O400   1.287       .  A
C394        C442   1.471       .  S
O395        C402   1.296       .  A
H396        C409   1.082       .  S
C397        O411   1.240       .  S
C397        O412   1.263       .  A
C397        H422   1.082       .  S
O398        C421   1.275       .  A
O399       Mg413   2.141       .  S
O400       Mg430   2.371       .  S
C401        O414   1.273       .  A
C401        O406   1.266       .  A
C402        O429   1.253       .  A
C402       C2418   1.487       .  S
Mg403       O410   2.137       .  S
Mg403       O411   2.209       .  S
Mg403       O404   2.210       .  S
Mg403       O405   2.263       .  S
Mg403       O432   2.252       .  S
O405        C409   1.257       .  A
O406       Mg413   2.262       .  S
O407        C426   1.288       .  A
O408        C428   1.253       .  A
O408       Mg424   2.197       .  S
O410       Mg424   2.211       .  S
O410        C421   1.239       .  S
O411       Mg430   2.044       .  S
O412       Mg424   2.227       .  S
Mg413       O429   2.168       .  S
O414       Mg430   2.231       .  S
H415        C420   1.082       .  S
O416       Mg424   2.141       .  S
O416        C419   1.230       .  S
H417        C419   1.081       .  S
H418        C421   1.081       .  S
O423       Mg430   2.314       .  S
C426        O431   1.282       .  A
C426       C2945   1.483       .  S
O427        C428   1.281       .  A
C428       C1114   1.482       .  S
O433       Mg435   2.236       .  S
O433       Mg441   2.203       .  S
O433        C468   1.245       .  S
C434        O447   1.239       .  S
C434        O471   1.273       .  A
C434        H473   1.081       .  S
Mg435       O464   2.114       .  S
Mg435       O479   2.356       .  S
Mg435       O475   2.417       .  S
Mg435       O446   2.327       .  S
O436       Mg478   2.145       .  S
O436       Mg461   2.086       .  S
O436        C457   1.227       .  S
O437        C468   1.281       .  A
O437       Mg461   2.336       .  S
C438        O440   1.264       .  A
C438        O452   1.251       .  A
O439        C467   1.264       .  A
O439       Mg441   2.299       .  S
O440       Mg472   2.282       .  S
Mg441       O447   2.152       .  S
Mg441       O455   2.318       .  S
Mg441       O443   2.424       .  S
C442        O480   1.275       .  A
C442        O448   1.287       .  A
O443        C450   1.295       .  A
H444        C457   1.082       .  S
C445        O459   1.240       .  S
C445        O460   1.263       .  A
C445        H470   1.082       .  S
O446        C469   1.275       .  A
O447       Mg461   2.140       .  S
O448       Mg478   2.371       .  S
C449        O462   1.272       .  A
C449        O454   1.266       .  A
C450        O477   1.253       .  A
C450       C3234   1.486       .  S
Mg451       O458   2.137       .  S
Mg451       O459   2.208       .  S
Mg451       O452   2.210       .  S
Mg451       O453   2.263       .  S
Mg451       O480   2.252       .  S
O453        C457   1.257       .  A
O454       Mg461   2.262       .  S
O455        C474   1.288       .  A
O456        C476   1.253       .  A
O456       Mg472   2.197       .  S
O458       Mg472   2.211       .  S
O458        C469   1.239       .  S
O459       Mg478   2.044       .  S
O460       Mg472   2.227       .  S
Mg461       O477   2.169       .  S
O462       Mg478   2.230       .  S
H463        C468   1.082       .  S
O464       Mg472   2.140       .  S
O464        C467   1.230       .  S
H465        C467   1.081       .  S
H466        C469   1.081       .  S
O471       Mg478   2.314       .  S
C474        O479   1.282       .  A
C474       C4097   1.483       .  S
O475        C476   1.280       .  A
C476       C1018   1.482       .  S
O481       Mg483   2.237       .  S
O481       Mg489   2.204       .  S
O481        C516   1.245       .  S
C482        O495   1.239       .  S
C482        O519   1.273       .  A
C482        H521   1.081       .  S
Mg483       O512   2.114       .  S
Mg483       O527   2.353       .  S
Mg483       O523   2.417       .  S
Mg483       O494   2.327       .  S
O484       Mg526   2.146       .  S
O484       Mg509   2.087       .  S
O484        C505   1.227       .  S
O485        C516   1.281       .  A
O485       Mg509   2.336       .  S
C486        O488   1.264       .  A
C486        O500   1.251       .  A
C486       C1820   1.457       .  S
O487        C515   1.264       .  A
O487       Mg489   2.299       .  S
O488       Mg520   2.281       .  S
Mg489       O495   2.151       .  S
Mg489       O503   2.319       .  S
Mg489       O491   2.425       .  S
C490        O528   1.275       .  A
C490        O496   1.287       .  A
C490        C538   1.471       .  S
O491        C498   1.296       .  A
H492        C505   1.082       .  S
C493        O507   1.240       .  S
C493        O508   1.263       .  A
C493        H518   1.082       .  S
O494        C517   1.275       .  A
O495       Mg509   2.141       .  S
O496       Mg526   2.370       .  S
C497        O510   1.272       .  A
C497        O502   1.266       .  A
C497       C1746   1.457       .  S
C498        O525   1.253       .  A
C498       C1554   1.487       .  S
Mg499       O506   2.138       .  S
Mg499       O507   2.208       .  S
Mg499       O500   2.212       .  S
Mg499       O501   2.263       .  S
Mg499       O528   2.254       .  S
O501        C505   1.257       .  A
O502       Mg509   2.262       .  S
O503        C522   1.288       .  A
O504        C524   1.253       .  A
O504       Mg520   2.197       .  S
O506       Mg520   2.211       .  S
O506        C517   1.239       .  S
O507       Mg526   2.044       .  S
O508       Mg520   2.227       .  S
Mg509       O525   2.170       .  S
O510       Mg526   2.230       .  S
H511        C516   1.082       .  S
O512       Mg520   2.140       .  S
O512        C515   1.230       .  S
H513        C515   1.081       .  S
H514        C517   1.081       .  S
O519       Mg526   2.313       .  S
C522        O527   1.281       .  A
C522       C1025   1.482       .  S
O523        C524   1.280       .  A
C524       C1834   1.482       .  S
O529       Mg531   2.237       .  S
O529       Mg537   2.204       .  S
O529        C564   1.245       .  S
C530        O543   1.239       .  S
C530        O567   1.274       .  A
C530        H569   1.081       .  S
Mg531       O560   2.114       .  S
Mg531       O575   2.355       .  S
Mg531       O571   2.418       .  S
Mg531       O542   2.327       .  S
O532       Mg574   2.145       .  S
O532       Mg557   2.087       .  S
O532        C553   1.227       .  S
O533        C564   1.281       .  A
O533       Mg557   2.337       .  S
C534        O536   1.264       .  A
C534        O548   1.251       .  A
C534       C1772   1.457       .  S
O535        C563   1.264       .  A
O535       Mg537   2.299       .  S
O536       Mg568   2.281       .  S
Mg537       O543   2.151       .  S
Mg537       O551   2.317       .  S
Mg537       O539   2.424       .  S
C538        O576   1.275       .  A
C538        O544   1.287       .  A
O539        C546   1.295       .  A
H540        C553   1.082       .  S
C541        O555   1.240       .  S
C541        O556   1.263       .  A
C541        H566   1.082       .  S
O542        C565   1.275       .  A
O543       Mg557   2.140       .  S
O544       Mg574   2.371       .  S
C545        O558   1.272       .  A
C545        O550   1.266       .  A
C545       C1794   1.456       .  S
C546        O573   1.253       .  A
C546       C3906   1.487       .  S
Mg547       O554   2.137       .  S
Mg547       O555   2.207       .  S
Mg547       O548   2.212       .  S
Mg547       O549   2.263       .  S
Mg547       O576   2.253       .  S
O549        C553   1.257       .  A
O550       Mg557   2.261       .  S
O551        C570   1.288       .  A
O552        C572   1.253       .  A
O552       Mg568   2.195       .  S
O554       Mg568   2.211       .  S
O554        C565   1.239       .  S
O555       Mg574   2.043       .  S
O556       Mg568   2.227       .  S
Mg557       O573   2.170       .  S
O558       Mg574   2.230       .  S
H559        C564   1.082       .  S
O560       Mg568   2.141       .  S
O560        C563   1.230       .  S
H561        C563   1.081       .  S
H562        C565   1.081       .  S
O567       Mg574   2.314       .  S
C570        O575   1.282       .  A
C570       C2993   1.482       .  S
O571        C572   1.280       .  A
C572       C1258   1.482       .  S
O577       Mg579   2.237       .  S
O577       Mg585   2.204       .  S
O577        C612   1.245       .  S
C578        O591   1.239       .  S
C578        O615   1.273       .  A
C578        H617   1.081       .  S
Mg579       O608   2.114       .  S
Mg579       O623   2.355       .  S
Mg579       O619   2.418       .  S
Mg579       O590   2.327       .  S
O580       Mg622   2.146       .  S
O580       Mg605   2.087       .  S
O580        C601   1.227       .  S
O581        C612   1.281       .  A
O581       Mg605   2.336       .  S
C582        O584   1.264       .  A
C582        O596   1.251       .  A
O583        C611   1.264       .  A
O583       Mg585   2.299       .  S
O584       Mg616   2.282       .  S
Mg585       O591   2.150       .  S
Mg585       O599   2.318       .  S
Mg585       O587   2.425       .  S
C586        O624   1.275       .  A
C586        O592   1.287       .  A
C586        C634   1.471       .  S
O587        C594   1.296       .  A
H588        C601   1.082       .  S
C589        O603   1.240       .  S
C589        O604   1.263       .  A
C589        H614   1.082       .  S
O590        C613   1.275       .  A
O591       Mg605   2.141       .  S
O592       Mg622   2.370       .  S
C593        O606   1.273       .  A
C593        O598   1.266       .  A
C594        O621   1.253       .  A
C594       C1650   1.487       .  S
Mg595       O602   2.138       .  S
Mg595       O603   2.208       .  S
Mg595       O596   2.212       .  S
Mg595       O597   2.263       .  S
Mg595       O624   2.253       .  S
O597        C601   1.257       .  A
O598       Mg605   2.260       .  S
O599        C618   1.288       .  A
O600        C620   1.253       .  A
O600       Mg616   2.197       .  S
O602       Mg616   2.211       .  S
O602        C613   1.239       .  S
O603       Mg622   2.045       .  S
O604       Mg616   2.227       .  S
Mg605       O621   2.170       .  S
O606       Mg622   2.232       .  S
H607        C612   1.082       .  S
O608       Mg616   2.141       .  S
O608        C611   1.230       .  S
H609        C611   1.081       .  S
H610        C613   1.081       .  S
O615       Mg622   2.313       .  S
C618        O623   1.282       .  A
C618       C1121   1.483       .  S
O619        C620   1.280       .  A
C620       C1882   1.482       .  S
O625       Mg627   2.235       .  S
O625       Mg633   2.204       .  S
O625        C660   1.245       .  S
C626        O639   1.239       .  S
C626        O663   1.273       .  A
C626        H665   1.081       .  S
Mg627       O656   2.114       .  S
Mg627       O671   2.354       .  S
Mg627       O667   2.415       .  S
Mg627       O638   2.327       .  S
O628       Mg670   2.146       .  S
O628       Mg653   2.087       .  S
O628        C649   1.227       .  S
O629        C660   1.281       .  A
O629       Mg653   2.336       .  S
C630        O632   1.264       .  A
C630        O644   1.251       .  A
O631        C659   1.264       .  A
O631       Mg633   2.299       .  S
O632       Mg664   2.282       .  S
Mg633       O639   2.150       .  S
Mg633       O647   2.318       .  S
Mg633       O635   2.424       .  S
C634        O672   1.275       .  A
C634        O640   1.287       .  A
O635        C642   1.295       .  A
H636        C649   1.082       .  S
C637        O651   1.240       .  S
C637        O652   1.263       .  A
C637        H662   1.082       .  S
O638        C661   1.275       .  A
O639       Mg653   2.141       .  S
O640       Mg670   2.370       .  S
C641        O654   1.273       .  A
C641        O646   1.266       .  A
C642        O669   1.253       .  A
C642       C3810   1.487       .  S
Mg643       O650   2.139       .  S
Mg643       O651   2.209       .  S
Mg643       O644   2.212       .  S
Mg643       O645   2.263       .  S
Mg643       O672   2.253       .  S
O645        C649   1.257       .  A
O646       Mg653   2.260       .  S
O647        C666   1.288       .  A
O648        C668   1.253       .  A
O648       Mg664   2.198       .  S
O650       Mg664   2.211       .  S
O650        C661   1.239       .  S
O651       Mg670   2.045       .  S
O652       Mg664   2.227       .  S
Mg653       O669   2.170       .  S
O654       Mg670   2.232       .  S
H655        C660   1.082       .  S
O656       Mg664   2.140       .  S
O656        C659   1.230       .  S
H657        C659   1.081       .  S
H658        C661   1.081       .  S
O663       Mg670   2.313       .  S
C666        O671   1.281       .  A
C666       C4289   1.483       .  S
O667        C668   1.280       .  A
C668       C1306   1.482       .  S
O673       Mg675   2.237       .  S
O673       Mg681   2.204       .  S
O673        C708   1.245       .  S
C674        O687   1.239       .  S
C674        O711   1.273       .  A
C674        H713   1.081       .  S
Mg675       O704   2.113       .  S
Mg675       O719   2.352       .  S
Mg675       O715   2.417       .  S
Mg675       O686   2.326       .  S
O676       Mg718   2.144       .  S
O676       Mg701   2.084       .  S
O676        C697   1.227       .  S
O677        C708   1.281       .  A
O677       Mg701   2.336       .  S
C678        O680   1.264       .  A
C678        O692   1.251       .  A
O679        C707   1.264       .  A
O679       Mg681   2.299       .  S
O680       Mg712   2.282       .  S
Mg681       O687   2.150       .  S
Mg681       O695   2.318       .  S
Mg681       O683   2.424       .  S
C682        O720   1.275       .  A
C682        O688   1.287       .  A
C682        C730   1.469       .  S
O683        C690   1.295       .  A
H684        C697   1.082       .  S
C685        O699   1.240       .  S
C685        O700   1.263       .  A
C685        H710   1.082       .  S
O686        C709   1.275       .  A
O687       Mg701   2.140       .  S
O688       Mg718   2.368       .  S
C689        O702   1.272       .  A
C689        O694   1.266       .  A
C690        O717   1.253       .  A
C690       C2514   1.486       .  S
Mg691       O698   2.136       .  S
Mg691       O699   2.209       .  S
Mg691       O692   2.210       .  S
Mg691       O693   2.263       .  S
Mg691       O720   2.251       .  S
O693        C697   1.257       .  A
O694       Mg701   2.264       .  S
O695        C714   1.288       .  A
O696        C716   1.253       .  A
O696       Mg712   2.198       .  S
O698       Mg712   2.211       .  S
O698        C709   1.239       .  S
O699       Mg718   2.045       .  S
O700       Mg712   2.227       .  S
Mg701       O717   2.167       .  S
O702       Mg718   2.230       .  S
H703        C708   1.082       .  S
O704       Mg712   2.139       .  S
O704        C707   1.230       .  S
H705        C707   1.081       .  S
H706        C709   1.081       .  S
O711       Mg718   2.313       .  S
C714        O719   1.281       .  A
C714       C1889   1.482       .  S
O715        C716   1.280       .  A
C716       C2938   1.482       .  S
O721       Mg723   2.236       .  S
O721       Mg729   2.204       .  S
O721        C756   1.245       .  S
C722        O735   1.239       .  S
C722        O759   1.273       .  A
C722        H761   1.081       .  S
Mg723       O752   2.113       .  S
Mg723       O767   2.351       .  S
Mg723       O763   2.416       .  S
Mg723       O734   2.326       .  S
O724       Mg766   2.144       .  S
O724       Mg749   2.084       .  S
O724        C745   1.227       .  S
O725        C756   1.281       .  A
O725       Mg749   2.336       .  S
C726        O728   1.264       .  A
C726        O740   1.251       .  A
O727        C755   1.264       .  A
O727       Mg729   2.299       .  S
O728       Mg760   2.281       .  S
Mg729       O735   2.150       .  S
Mg729       O743   2.319       .  S
Mg729       O731   2.425       .  S
C730        O768   1.275       .  A
C730        O736   1.287       .  A
O731        C738   1.296       .  A
H732        C745   1.082       .  S
C733        O747   1.240       .  S
C733        O748   1.263       .  A
C733        H758   1.082       .  S
O734        C757   1.275       .  A
O735       Mg749   2.140       .  S
O736       Mg766   2.368       .  S
C737        O750   1.272       .  A
C737        O742   1.266       .  A
C738        O765   1.253       .  A
C738       C3522   1.486       .  S
Mg739       O746   2.136       .  S
Mg739       O747   2.209       .  S
Mg739       O740   2.210       .  S
Mg739       O741   2.263       .  S
Mg739       O768   2.250       .  S
O741        C745   1.257       .  A
O742       Mg749   2.263       .  S
O743        C762   1.288       .  A
O744        C764   1.253       .  A
O744       Mg760   2.196       .  S
O746       Mg760   2.211       .  S
O746        C757   1.239       .  S
O747       Mg766   2.045       .  S
O748       Mg760   2.227       .  S
Mg749       O765   2.167       .  S
O750       Mg766   2.231       .  S
H751        C756   1.082       .  S
O752       Mg760   2.139       .  S
O752        C755   1.230       .  S
H753        C755   1.081       .  S
H754        C757   1.081       .  S
O759       Mg766   2.313       .  S
C762        O767   1.281       .  A
C762       C4001   1.482       .  S
O763        C764   1.280       .  A
C764       C2170   1.482       .  S
O769       Mg771   2.236       .  S
O769       Mg777   2.204       .  S
O769        C804   1.245       .  S
C770        O783   1.239       .  S
C770        O807   1.274       .  A
C770        H809   1.081       .  S
Mg771       O800   2.114       .  S
Mg771       O815   2.355       .  S
Mg771       O811   2.417       .  S
Mg771       O782   2.327       .  S
O772       Mg814   2.146       .  S
O772       Mg797   2.088       .  S
O772        C793   1.227       .  S
O773        C804   1.281       .  A
O773       Mg797   2.336       .  S
C774        O776   1.264       .  A
C774        O788   1.251       .  A
C774       C2108   1.457       .  S
O775        C803   1.264       .  A
O775       Mg777   2.299       .  S
O776       Mg808   2.281       .  S
Mg777       O783   2.152       .  S
Mg777       O791   2.319       .  S
Mg777       O779   2.425       .  S
C778        O816   1.275       .  A
C778        O784   1.287       .  A
C778        C826   1.472       .  S
O779        C786   1.295       .  A
H780        C793   1.082       .  S
C781        O795   1.240       .  S
C781        O796   1.263       .  A
C781        H806   1.082       .  S
O782        C805   1.275       .  A
O783       Mg797   2.141       .  S
O784       Mg814   2.372       .  S
C785        O798   1.272       .  A
C785        O790   1.266       .  A
C785       C2034   1.456       .  S
C786        O813   1.253       .  A
C786       C3090   1.487       .  S
Mg787       O794   2.139       .  S
Mg787       O795   2.207       .  S
Mg787       O788   2.212       .  S
Mg787       O789   2.263       .  S
Mg787       O816   2.256       .  S
O789        C793   1.257       .  A
O790       Mg797   2.261       .  S
O791        C810   1.288       .  A
O792        C812   1.253       .  A
O792       Mg808   2.196       .  S
O794       Mg808   2.211       .  S
O794        C805   1.239       .  S
O795       Mg814   2.044       .  S
O796       Mg808   2.227       .  S
Mg797       O813   2.170       .  S
O798       Mg814   2.229       .  S
H799        C804   1.082       .  S
O800       Mg808   2.141       .  S
O800        C803   1.230       .  S
H801        C803   1.081       .  S
H802        C805   1.081       .  S
O807       Mg814   2.314       .  S
C810        O815   1.282       .  A
C810       C2177   1.483       .  S
O811        C812   1.280       .  A
C812       C1066   1.482       .  S
O817       Mg819   2.236       .  S
O817       Mg825   2.204       .  S
O817        C852   1.245       .  S
C818        O831   1.239       .  S
C818        O855   1.273       .  A
C818        H857   1.081       .  S
Mg819       O848   2.114       .  S
Mg819       O863   2.356       .  S
Mg819       O859   2.417       .  S
Mg819       O830   2.328       .  S
O820       Mg862   2.146       .  S
O820       Mg845   2.088       .  S
O820        C841   1.227       .  S
O821        C852   1.281       .  A
O821       Mg845   2.336       .  S
C822        O824   1.264       .  A
C822        O836   1.251       .  A
C822       C2060   1.457       .  S
O823        C851   1.264       .  A
O823       Mg825   2.298       .  S
O824       Mg856   2.281       .  S
Mg825       O831   2.151       .  S
Mg825       O839   2.318       .  S
Mg825       O827   2.423       .  S
C826        O864   1.275       .  A
C826        O832   1.287       .  A
O827        C834   1.295       .  A
H828        C841   1.082       .  S
C829        O843   1.240       .  S
C829        O844   1.263       .  A
C829        H854   1.082       .  S
O830        C853   1.275       .  A
O831       Mg845   2.141       .  S
O832       Mg862   2.371       .  S
C833        O846   1.272       .  A
C833        O838   1.266       .  A
C833       C2082   1.456       .  S
C834        O861   1.253       .  A
C834       C3330   1.487       .  S
Mg835       O842   2.140       .  S
Mg835       O843   2.208       .  S
Mg835       O836   2.212       .  S
Mg835       O837   2.263       .  S
Mg835       O864   2.256       .  S
O837        C841   1.257       .  A
O838       Mg845   2.261       .  S
O839        C858   1.288       .  A
O840        C860   1.253       .  A
O840       Mg856   2.197       .  S
O842       Mg856   2.211       .  S
O842        C853   1.239       .  S
O843       Mg862   2.044       .  S
O844       Mg856   2.227       .  S
Mg845       O861   2.170       .  S
O846       Mg862   2.230       .  S
H847        C852   1.082       .  S
O848       Mg856   2.141       .  S
O848        C851   1.230       .  S
H849        C851   1.081       .  S
H850        C853   1.081       .  S
O855       Mg862   2.314       .  S
C858        O863   1.282       .  A
C858       C2369   1.483       .  S
O859        C860   1.280       .  A
C860        C970   1.482       .  S
O865       Mg867   2.044       .  S
O865       Mg873   2.208       .  S
O865        C900   1.240       .  S
C866        O879   1.239       .  S
C866        O903   1.275       .  A
C866        H905   1.081       .  S
Mg867       O896   2.145       .  S
Mg867       O911   2.370       .  S
Mg867       O907   2.229       .  S
Mg867       O878   2.314       .  S
O868       Mg910   2.114       .  S
O868       Mg893   2.140       .  S
O868        C889   1.230       .  S
O869        C900   1.263       .  A
O869       Mg893   2.227       .  S
C870        O872   1.253       .  A
C870        O884   1.295       .  A
C870       C2118   1.486       .  S
O871        C899   1.257       .  A
O871       Mg873   2.263       .  S
O872       Mg904   2.168       .  S
Mg873       O879   2.137       .  S
Mg873       O887   2.252       .  S
Mg873       O875   2.211       .  S
C874        O912   1.288       .  A
C874        O880   1.281       .  A
C874       C3116   1.483       .  S
O875        C882   1.251       .  A
H876        C889   1.081       .  S
C877        O891   1.245       .  S
C877        O892   1.281       .  A
C877        H902   1.082       .  S
O878        C901   1.273       .  A
O879       Mg893   2.211       .  S
O880       Mg910   2.354       .  S
C881        O894   1.280       .  A
C881        O886   1.253       .  A
C882        O909   1.264       .  A
C882       C4481   1.457       .  S
Mg883       O890   2.151       .  S
Mg883       O891   2.204       .  S
Mg883       O884   2.423       .  S
Mg883       O885   2.299       .  S
Mg883       O912   2.319       .  S
O885        C889   1.264       .  A
O886       Mg893   2.197       .  S
O887        C906   1.275       .  A
O888        C908   1.266       .  A
O888       Mg904   2.263       .  S
O890       Mg904   2.140       .  S
O890        C901   1.239       .  S
O891       Mg910   2.235       .  S
O892       Mg904   2.336       .  S
Mg893       O909   2.281       .  S
O894       Mg910   2.417       .  S
H895        C900   1.082       .  S
O896       Mg904   2.086       .  S
O896        C899   1.227       .  S
H897        C899   1.082       .  S
H898        C901   1.081       .  S
O903       Mg910   2.327       .  S
C906        O911   1.287       .  A
C906        C954   1.471       .  S
O907        C908   1.272       .  A
C908       C4422   1.456       .  S
O913       Mg915   2.045       .  S
O913       Mg921   2.209       .  S
O913        C948   1.240       .  S
C914        O927   1.239       .  S
C914        O951   1.275       .  A
C914        H953   1.081       .  S
Mg915       O944   2.144       .  S
Mg915       O959   2.370       .  S
Mg915       O955   2.231       .  S
Mg915       O926   2.314       .  S
O916       Mg958   2.114       .  S
O916       Mg941   2.140       .  S
O916        C937   1.230       .  S
O917        C948   1.263       .  A
O917       Mg941   2.227       .  S
C918        O920   1.253       .  A
C918        O932   1.295       .  A
C918       C2886   1.486       .  S
O919        C947   1.257       .  A
O919       Mg921   2.262       .  S
O920       Mg952   2.167       .  S
Mg921       O927   2.138       .  S
Mg921       O935   2.253       .  S
Mg921       O923   2.210       .  S
C922        O960   1.288       .  A
C922        O928   1.282       .  A
C922       C2444   1.483       .  S
O923        C930   1.251       .  A
H924        C937   1.081       .  S
C925        O939   1.245       .  S
C925        O940   1.281       .  A
C925        H950   1.082       .  S
O926        C949   1.273       .  A
O927       Mg941   2.211       .  S
O928       Mg958   2.357       .  S
C929        O942   1.281       .  A
C929        O934   1.253       .  A
C929       C3738   1.482       .  S
C930        O957   1.264       .  A
C930       C4433   1.456       .  S
Mg931       O938   2.151       .  S
Mg931       O939   2.204       .  S
Mg931       O932   2.423       .  S
Mg931       O933   2.299       .  S
Mg931       O960   2.317       .  S
O933        C937   1.264       .  A
O934       Mg941   2.198       .  S
O935        C954   1.275       .  A
O936        C956   1.266       .  A
O936       Mg952   2.263       .  S
O938       Mg952   2.141       .  S
O938        C949   1.239       .  S
O939       Mg958   2.236       .  S
O940       Mg952   2.336       .  S
Mg941       O957   2.282       .  S
O942       Mg958   2.418       .  S
H943        C948   1.082       .  S
O944       Mg952   2.084       .  S
O944        C947   1.227       .  S
H945        C947   1.082       .  S
H946        C949   1.081       .  S
O951       Mg958   2.327       .  S
C954        O959   1.287       .  A
O955        C956   1.273       .  A
C956       C4470   1.457       .  S
O961       Mg963   2.045       .  S
O961       Mg969   2.208       .  S
O961        C996   1.240       .  S
C962        O975   1.239       .  S
C962        O999   1.275       .  A
C962       H1001   1.081       .  S
Mg963       O992   2.145       .  S
Mg963      O1007   2.369       .  S
Mg963      O1003   2.231       .  S
Mg963       O974   2.313       .  S
O964      Mg1006   2.114       .  S
O964       Mg989   2.140       .  S
O964        C985   1.230       .  S
O965        C996   1.263       .  A
O965       Mg989   2.227       .  S
C966        O968   1.253       .  A
C966        O980   1.295       .  A
C966       C2022   1.487       .  S
O967        C995   1.257       .  A
O967       Mg969   2.263       .  S
O968      Mg1000   2.169       .  S
Mg969       O975   2.138       .  S
Mg969       O983   2.253       .  S
Mg969       O971   2.212       .  S
C970       O1008   1.288       .  A
C970        O976   1.281       .  A
O971        C978   1.251       .  A
H972        C985   1.081       .  S
C973        O987   1.245       .  S
C973        O988   1.281       .  A
C973        H998   1.082       .  S
O974        C997   1.273       .  A
O975       Mg989   2.211       .  S
O976      Mg1006   2.353       .  S
C977        O990   1.280       .  A
C977        O982   1.253       .  A
C977       C4410   1.482       .  S
C978       O1005   1.264       .  A
C978       C1601   1.457       .  S
Mg979       O986   2.150       .  S
Mg979       O987   2.204       .  S
Mg979       O980   2.424       .  S
Mg979       O981   2.299       .  S
Mg979      O1008   2.318       .  S
O981        C985   1.264       .  A
O982       Mg989   2.197       .  S
O983       C1002   1.275       .  A
O984       C1004   1.266       .  A
O984      Mg1000   2.262       .  S
O986      Mg1000   2.141       .  S
O986        C997   1.239       .  S
O987      Mg1006   2.236       .  S
O988      Mg1000   2.336       .  S
Mg989      O1005   2.281       .  S
O990      Mg1006   2.417       .  S
H991        C996   1.082       .  S
O992      Mg1000   2.086       .  S
O992        C995   1.227       .  S
H993        C995   1.082       .  S
H994        C997   1.081       .  S
O999      Mg1006   2.327       .  S
C1002      O1007   1.287       .  A
C1002      C1050   1.470       .  S
O1003      C1004   1.272       .  A
C1004      C1542   1.457       .  S
O1009     Mg1011   2.045       .  S
O1009     Mg1017   2.208       .  S
O1009      C1044   1.240       .  S
C1010      O1023   1.239       .  S
C1010      O1047   1.275       .  A
C1010      H1049   1.081       .  S
Mg1011     O1040   2.145       .  S
Mg1011     O1055   2.370       .  S
Mg1011     O1051   2.231       .  S
Mg1011     O1022   2.314       .  S
O1012     Mg1054   2.114       .  S
O1012     Mg1037   2.141       .  S
O1012      C1033   1.230       .  S
O1013      C1044   1.263       .  A
O1013     Mg1037   2.227       .  S
C1014      O1016   1.253       .  A
C1014      O1028   1.296       .  A
O1015      C1043   1.257       .  A
O1015     Mg1017   2.263       .  S
O1016     Mg1048   2.169       .  S
Mg1017     O1023   2.136       .  S
Mg1017     O1031   2.252       .  S
Mg1017     O1019   2.211       .  S
C1018      O1056   1.288       .  A
C1018      O1024   1.281       .  A
O1019      C1026   1.251       .  A
H1020      C1033   1.081       .  S
C1021      O1035   1.245       .  S
C1021      O1036   1.281       .  A
C1021      H1046   1.082       .  S
O1022      C1045   1.273       .  A
O1023     Mg1037   2.211       .  S
O1024     Mg1054   2.353       .  S
C1025      O1038   1.280       .  A
C1025      O1030   1.253       .  A
C1026      O1053   1.264       .  A
C1026      C1553   1.457       .  S
Mg1027     O1034   2.151       .  S
Mg1027     O1035   2.204       .  S
Mg1027     O1028   2.425       .  S
Mg1027     O1029   2.299       .  S
Mg1027     O1056   2.318       .  S
O1029      C1033   1.264       .  A
O1030     Mg1037   2.196       .  S
O1031      C1050   1.275       .  A
O1032      C1052   1.266       .  A
O1032     Mg1048   2.262       .  S
O1034     Mg1048   2.141       .  S
O1034      C1045   1.239       .  S
O1035     Mg1054   2.237       .  S
O1036     Mg1048   2.336       .  S
Mg1037     O1053   2.281       .  S
O1038     Mg1054   2.418       .  S
H1039      C1044   1.082       .  S
O1040     Mg1048   2.086       .  S
O1040      C1043   1.227       .  S
H1041      C1043   1.082       .  S
H1042      C1045   1.081       .  S
O1047     Mg1054   2.326       .  S
C1050      O1055   1.287       .  A
O1051      C1052   1.272       .  A
C1052      C1590   1.457       .  S
O1057     Mg1059   2.044       .  S
O1057     Mg1065   2.208       .  S
O1057      C1092   1.240       .  S
C1058      O1071   1.239       .  S
C1058      O1095   1.275       .  A
C1058      H1097   1.081       .  S
Mg1059     O1088   2.145       .  S
Mg1059     O1103   2.369       .  S
Mg1059     O1099   2.231       .  S
Mg1059     O1070   2.313       .  S
O1060     Mg1102   2.114       .  S
O1060     Mg1085   2.140       .  S
O1060      C1081   1.230       .  S
O1061      C1092   1.263       .  A
O1061     Mg1085   2.227       .  S
C1062      O1064   1.253       .  A
C1062      O1076   1.296       .  A
C1062      C2070   1.487       .  S
O1063      C1091   1.257       .  A
O1063     Mg1065   2.263       .  S
O1064     Mg1096   2.169       .  S
Mg1065     O1071   2.137       .  S
Mg1065     O1079   2.252       .  S
Mg1065     O1067   2.211       .  S
C1066      O1104   1.288       .  A
C1066      O1072   1.281       .  A
O1067      C1074   1.251       .  A
H1068      C1081   1.081       .  S
C1069      O1083   1.245       .  S
C1069      O1084   1.281       .  A
C1069      H1094   1.082       .  S
O1070      C1093   1.273       .  A
O1071     Mg1085   2.211       .  S
O1072     Mg1102   2.352       .  S
C1073      O1086   1.280       .  A
C1073      O1078   1.253       .  A
C1073      C3642   1.482       .  S
C1074      O1101   1.264       .  A
C1074      C1697   1.457       .  S
Mg1075     O1082   2.150       .  S
Mg1075     O1083   2.204       .  S
Mg1075     O1076   2.425       .  S
Mg1075     O1077   2.299       .  S
Mg1075     O1104   2.319       .  S
O1077      C1081   1.264       .  A
O1078     Mg1085   2.197       .  S
O1079      C1098   1.275       .  A
O1080      C1100   1.266       .  A
O1080     Mg1096   2.262       .  S
O1082     Mg1096   2.141       .  S
O1082      C1093   1.239       .  S
O1083     Mg1102   2.236       .  S
O1084     Mg1096   2.336       .  S
Mg1085     O1101   2.281       .  S
O1086     Mg1102   2.416       .  S
H1087      C1092   1.082       .  S
O1088     Mg1096   2.087       .  S
O1088      C1091   1.227       .  S
H1089      C1091   1.082       .  S
H1090      C1093   1.081       .  S
O1095     Mg1102   2.326       .  S
C1098      O1103   1.287       .  A
C1098      C1146   1.470   1_455  S
O1099      C1100   1.272       .  A
C1100      C1638   1.457       .  S
O1105     Mg1107   2.045       .  S
O1105     Mg1113   2.208       .  S
O1105      C1140   1.240       .  S
C1106      O1119   1.239       .  S
C1106      O1143   1.275       .  A
C1106      H1145   1.081       .  S
Mg1107     O1136   2.145       .  S
Mg1107     O1151   2.369       .  S
Mg1107     O1147   2.231       .  S
Mg1107     O1118   2.313       .  S
O1108     Mg1150   2.114       .  S
O1108     Mg1133   2.140       .  S
O1108      C1129   1.230       .  S
O1109      C1140   1.263       .  A
O1109     Mg1133   2.227       .  S
C1110      O1112   1.253       .  A
C1110      O1124   1.296       .  A
O1111      C1139   1.257       .  A
O1111     Mg1113   2.263       .  S
O1112     Mg1144   2.169       .  S
Mg1113     O1119   2.137       .  S
Mg1113     O1127   2.252       .  S
Mg1113     O1115   2.211       .  S
C1114      O1152   1.288       .  A
C1114      O1120   1.282       .  A
O1115      C1122   1.251       .  A
H1116      C1129   1.081       .  S
C1117      O1131   1.245       .  S
C1117      O1132   1.281       .  A
C1117      H1142   1.082       .  S
O1118      C1141   1.273       .  A
O1119     Mg1133   2.211       .  S
O1120     Mg1150   2.354       .  S
C1121      O1134   1.281       .  A
C1121      O1126   1.253       .  A
C1122      O1149   1.264       .  A
C1122      C1649   1.457       .  S
Mg1123     O1130   2.150       .  S
Mg1123     O1131   2.204       .  S
Mg1123     O1124   2.426       .  S
Mg1123     O1125   2.299       .  S
Mg1123     O1152   2.318       .  S
O1125      C1129   1.264       .  A
O1126     Mg1133   2.198       .  S
O1127      C1146   1.275       .  A
O1128      C1148   1.266       .  A
O1128     Mg1144   2.262       .  S
O1130     Mg1144   2.140       .  S
O1130      C1141   1.239       .  S
O1131     Mg1150   2.237       .  S
O1132     Mg1144   2.336       .  S
Mg1133     O1149   2.282       .  S
O1134     Mg1150   2.418       .  S
H1135      C1140   1.082       .  S
O1136     Mg1144   2.086       .  S
O1136      C1139   1.227       .  S
H1137      C1139   1.082       .  S
H1138      C1141   1.081       .  S
O1143     Mg1150   2.327       .  S
C1146      O1151   1.287       .  A
O1147      C1148   1.273       .  A
C1148      C1686   1.457       .  S
O1153     Mg1155   2.236       .  S
O1153     Mg1161   2.204       .  S
O1153      C1188   1.245       .  S
C1154      O1167   1.239       .  S
C1154      O1191   1.273       .  A
C1154      H1193   1.081       .  S
Mg1155     O1184   2.114       .  S
Mg1155     O1199   2.352       .  S
Mg1155     O1195   2.416       .  S
Mg1155     O1166   2.326       .  S
O1156     Mg1198   2.145       .  S
O1156     Mg1181   2.086       .  S
O1156      C1177   1.227       .  S
O1157      C1188   1.281       .  A
O1157     Mg1181   2.336       .  S
C1158      O1160   1.264       .  A
C1158      O1172   1.251       .  A
C1158      C1388   1.457       .  S
O1159      C1187   1.264       .  A
O1159     Mg1161   2.299       .  S
O1160     Mg1192   2.281       .  S
Mg1161     O1167   2.150       .  S
Mg1161     O1175   2.319       .  S
Mg1161     O1163   2.425       .  S
C1162      O1200   1.275       .  A
C1162      O1168   1.287       .  A
C1162      C1210   1.470   1_455  S
O1163      C1170   1.296       .  A
H1164      C1177   1.082       .  S
C1165      O1179   1.240       .  S
C1165      O1180   1.263       .  A
C1165      H1190   1.082       .  S
O1166      C1189   1.275       .  A
O1167     Mg1181   2.140       .  S
O1168     Mg1198   2.369       .  S
C1169      O1182   1.272       .  A
C1169      O1174   1.266       .  A
C1169      C1410   1.457       .  S
C1170      O1197   1.253       .  A
C1170      C3474   1.486       .  S
Mg1171     O1178   2.137       .  S
Mg1171     O1179   2.208       .  S
Mg1171     O1172   2.211       .  S
Mg1171     O1173   2.263       .  S
Mg1171     O1200   2.253       .  S
O1173      C1177   1.257       .  A
O1174     Mg1181   2.263       .  S
O1175      C1194   1.288       .  A
O1176      C1196   1.253       .  A
O1176     Mg1192   2.197       .  S
O1178     Mg1192   2.211       .  S
O1178      C1189   1.239       .  S
O1179     Mg1198   2.044       .  S
O1180     Mg1192   2.227       .  S
Mg1181     O1197   2.168       .  S
O1182     Mg1198   2.230       .  S
H1183      C1188   1.082       .  S
O1184     Mg1192   2.140       .  S
O1184      C1187   1.230       .  S
H1185      C1187   1.081       .  S
H1186      C1189   1.081       .  S
O1191     Mg1198   2.313       .  S
C1194      O1199   1.281       .  A
C1194      C3953   1.482       .  S
O1195      C1196   1.280       .  A
C1196      C2362   1.482       .  S
O1201     Mg1203   2.237       .  S
O1201     Mg1209   2.204       .  S
O1201      C1236   1.245       .  S
C1202      O1215   1.239       .  S
C1202      O1239   1.273       .  A
C1202      H1241   1.081       .  S
Mg1203     O1232   2.114       .  S
Mg1203     O1247   2.354       .  S
Mg1203     O1243   2.418       .  S
Mg1203     O1214   2.326       .  S
O1204     Mg1246   2.145       .  S
O1204     Mg1229   2.085       .  S
O1204      C1225   1.227       .  S
O1205      C1236   1.281       .  A
O1205     Mg1229   2.336       .  S
C1206      O1208   1.264       .  A
C1206      O1220   1.251       .  A
C1206      C1436   1.456       .  S
O1207      C1235   1.264       .  A
O1207     Mg1209   2.299       .  S
O1208     Mg1240   2.281       .  S
Mg1209     O1215   2.151       .  S
Mg1209     O1223   2.318       .  S
Mg1209     O1211   2.425       .  S
C1210      O1248   1.275       .  A
C1210      O1216   1.287       .  A
O1211      C1218   1.296       .  A
H1212      C1225   1.082       .  S
C1213      O1227   1.240       .  S
C1213      O1228   1.263       .  A
C1213      H1238   1.082       .  S
O1214      C1237   1.275       .  A
O1215     Mg1229   2.141       .  S
O1216     Mg1246   2.369       .  S
C1217      O1230   1.272       .  A
C1217      O1222   1.266       .  A
C1217      C1362   1.457       .  S
C1218      O1245   1.253       .  A
C1218      C2562   1.487       .  S
Mg1219     O1226   2.137       .  S
Mg1219     O1227   2.209       .  S
Mg1219     O1220   2.211       .  S
Mg1219     O1221   2.263       .  S
Mg1219     O1248   2.252       .  S
O1221      C1225   1.257       .  A
O1222     Mg1229   2.262       .  S
O1223      C1242   1.288       .  A
O1224      C1244   1.253       .  A
O1224     Mg1240   2.197       .  S
O1226     Mg1240   2.211       .  S
O1226      C1237   1.239       .  S
O1227     Mg1246   2.045       .  S
O1228     Mg1240   2.227       .  S
Mg1229     O1245   2.168       .  S
O1230     Mg1246   2.231       .  S
H1231      C1236   1.082       .  S
O1232     Mg1240   2.140       .  S
O1232      C1235   1.230       .  S
H1233      C1235   1.081       .  S
H1234      C1237   1.081       .  S
O1239     Mg1246   2.314       .  S
C1242      O1247   1.281       .  A
C1242      C1841   1.482       .  S
O1243      C1244   1.281       .  A
C1244      C4090   1.482       .  S
O1249     Mg1251   2.044       .  S
O1249     Mg1257   2.208       .  S
O1249      C1284   1.240       .  S
C1250      O1263   1.239       .  S
C1250      O1287   1.275       .  A
C1250      H1289   1.081       .  S
Mg1251     O1280   2.146       .  S
Mg1251     O1295   2.369       .  S
Mg1251     O1291   2.231       .  S
Mg1251     O1262   2.314       .  S
O1252     Mg1294   2.115       .  S
O1252     Mg1277   2.141       .  S
O1252      C1273   1.230       .  S
O1253      C1284   1.263       .  A
O1253     Mg1277   2.227       .  S
C1254      O1256   1.253       .  A
C1254      O1268   1.296       .  A
C1254      C1734   1.487       .  S
O1255      C1283   1.257       .  A
O1255     Mg1257   2.264       .  S
O1256     Mg1288   2.170       .  S
Mg1257     O1263   2.137       .  S
Mg1257     O1271   2.254       .  S
Mg1257     O1259   2.213       .  S
C1258      O1296   1.288       .  A
C1258      O1264   1.281       .  A
O1259      C1266   1.251       .  A
H1260      C1273   1.081       .  S
C1261      O1275   1.245       .  S
C1261      O1276   1.281       .  A
C1261      H1286   1.082       .  S
O1262      C1285   1.273       .  A
O1263     Mg1277   2.211       .  S
O1264     Mg1294   2.352       .  S
C1265      O1278   1.280       .  A
C1265      O1270   1.253       .  A
C1265      C4602   1.481       .  S
C1266      O1293   1.264       .  A
Mg1267     O1274   2.151       .  S
Mg1267     O1275   2.204       .  S
Mg1267     O1268   2.424       .  S
Mg1267     O1269   2.298       .  S
Mg1267     O1296   2.320       .  S
O1269      C1273   1.264       .  A
O1270     Mg1277   2.196       .  S
O1271      C1290   1.275       .  A
O1272      C1292   1.266       .  A
O1272     Mg1288   2.261       .  S
O1274     Mg1288   2.141       .  S
O1274      C1285   1.239       .  S
O1275     Mg1294   2.235       .  S
O1276     Mg1288   2.336       .  S
Mg1277     O1293   2.281       .  S
O1278     Mg1294   2.414       .  S
H1279      C1284   1.082       .  S
O1280     Mg1288   2.087       .  S
O1280      C1283   1.227       .  S
H1281      C1283   1.082       .  S
H1282      C1285   1.081       .  S
O1287     Mg1294   2.327       .  S
C1290      O1295   1.287       .  A
C1290      C1338   1.471       .  S
O1291      C1292   1.272       .  A
O1297     Mg1299   2.045       .  S
O1297     Mg1305   2.208       .  S
O1297      C1332   1.240       .  S
C1298      O1311   1.239       .  S
C1298      O1335   1.275       .  A
C1298      H1337   1.081       .  S
Mg1299     O1328   2.146       .  S
Mg1299     O1343   2.369       .  S
Mg1299     O1339   2.232       .  S
Mg1299     O1310   2.313       .  S
O1300     Mg1342   2.114       .  S
O1300     Mg1325   2.140       .  S
O1300      C1321   1.230       .  S
O1301      C1332   1.263       .  A
O1301     Mg1325   2.228       .  S
C1302      O1304   1.253       .  A
C1302      O1316   1.295       .  A
O1303      C1331   1.257       .  A
O1303     Mg1305   2.263       .  S
O1304     Mg1336   2.170       .  S
Mg1305     O1311   2.138       .  S
Mg1305     O1319   2.254       .  S
Mg1305     O1307   2.213       .  S
C1306      O1344   1.288       .  A
C1306      O1312   1.281       .  A
O1307      C1314   1.251       .  A
H1308      C1321   1.081       .  S
C1309      O1323   1.245       .  S
C1309      O1324   1.281       .  A
C1309      H1334   1.082       .  S
O1310      C1333   1.273       .  A
O1311     Mg1325   2.211       .  S
O1312     Mg1342   2.353       .  S
C1313      O1326   1.280       .  A
C1313      O1318   1.253       .  A
C1313      C4506   1.483       .  S
C1314      O1341   1.264       .  A
Mg1315     O1322   2.149       .  S
Mg1315     O1323   2.205       .  S
Mg1315     O1316   2.424       .  S
Mg1315     O1317   2.299       .  S
Mg1315     O1344   2.317       .  S
O1317      C1321   1.264       .  A
O1318     Mg1325   2.197       .  S
O1319      C1338   1.275       .  A
O1320      C1340   1.265       .  A
O1320     Mg1336   2.260       .  S
O1322     Mg1336   2.141       .  S
O1322      C1333   1.239       .  S
O1323     Mg1342   2.237       .  S
O1324     Mg1336   2.336       .  S
Mg1325     O1341   2.281       .  S
O1326     Mg1342   2.418       .  S
H1327      C1332   1.082       .  S
O1328     Mg1336   2.087       .  S
O1328      C1331   1.227       .  S
H1329      C1331   1.082       .  S
H1330      C1333   1.081       .  S
O1335     Mg1342   2.327       .  S
C1338      O1343   1.287       .  A
O1339      C1340   1.273       .  A
O1345     Mg1347   2.044       .  S
O1345     Mg1353   2.208       .  S
O1345      C1380   1.240   1_455  S
C1346      O1359   1.239       .  S
C1346      O1383   1.275       .  A
C1346      H1385   1.081       .  S
Mg1347     O1376   2.145       .  S
Mg1347     O1391   2.369       .  S
Mg1347     O1387   2.230       .  S
Mg1347     O1358   2.314       .  S
O1348     Mg1390   2.114       .  S
O1348     Mg1373   2.141   1_455  S
O1348      C1369   1.230       .  S
O1349      C1380   1.263       .  A
O1349     Mg1373   2.227       .  S
C1350      O1352   1.253       .  A
C1350      O1364   1.296       .  A
C1350      C2358   1.487       .  S
O1351      C1379   1.257       .  A
O1351     Mg1353   2.263       .  S
O1352     Mg1384   2.169       .  S
Mg1353     O1359   2.137       .  S
Mg1353     O1367   2.253   1_455  S
Mg1353     O1355   2.211   1_455  S
C1354      O1392   1.288       .  A
C1354      O1360   1.282       .  A
C1354      C3308   1.483       .  S
O1355      C1362   1.251       .  A
H1356      C1369   1.081   1_655  S
C1357      O1371   1.245       .  S
C1357      O1372   1.281       .  A
C1357      H1382   1.082       .  S
O1358      C1381   1.273       .  A
O1359     Mg1373   2.211   1_455  S
O1360     Mg1390   2.355       .  S
C1361      O1374   1.281       .  A
C1361      O1366   1.253       .  A
C1361      C2586   1.483       .  S
C1362      O1389   1.264       .  A
Mg1363     O1370   2.151       .  S
Mg1363     O1371   2.204       .  S
Mg1363     O1364   2.425       .  S
Mg1363     O1365   2.299       .  S
Mg1363     O1392   2.319       .  S
O1365      C1369   1.264       .  A
O1366     Mg1373   2.197       .  S
O1367      C1386   1.275   1_655  A
O1368      C1388   1.266       .  A
O1368     Mg1384   2.262       .  S
O1370     Mg1384   2.141       .  S
O1370      C1381   1.239       .  S
O1371     Mg1390   2.237       .  S
O1372     Mg1384   2.337       .  S
Mg1373     O1389   2.282       .  S
O1374     Mg1390   2.418   1_655  S
H1375      C1380   1.082       .  S
O1376     Mg1384   2.086       .  S
O1376      C1379   1.227       .  S
H1377      C1379   1.082       .  S
H1378      C1381   1.081       .  S
O1383     Mg1390   2.327       .  S
C1386      O1391   1.287       .  A
C1386      C1434   1.470       .  S
O1387      C1388   1.272       .  A
O1393     Mg1395   2.044   1_455  S
O1393     Mg1401   2.208       .  S
O1393      C1428   1.240       .  S
C1394      O1407   1.239   1_655  S
C1394      O1431   1.275       .  A
C1394      H1433   1.081       .  S
Mg1395     O1424   2.145       .  S
Mg1395     O1439   2.370       .  S
Mg1395     O1435   2.230       .  S
Mg1395     O1406   2.313       .  S
O1396     Mg1438   2.114   1_455  S
O1396     Mg1421   2.140       .  S
O1396      C1417   1.230       .  S
O1397      C1428   1.263       .  A
O1397     Mg1421   2.227       .  S
C1398      O1400   1.253       .  A
C1398      O1412   1.295       .  A
C1398      C4086   1.486       .  S
O1399      C1427   1.257       .  A
O1399     Mg1401   2.263   1_655  S
O1400     Mg1432   2.169       .  S
Mg1401     O1407   2.136       .  S
Mg1401     O1415   2.252       .  S
Mg1401     O1403   2.212       .  S
C1402      O1440   1.288       .  A
C1402      O1408   1.281       .  A
C1402      C3212   1.482   1_565  S
O1403      C1410   1.251       .  A
H1404      C1417   1.081       .  S
C1405      O1419   1.245       .  S
C1405      O1420   1.281       .  A
C1405      H1430   1.082       .  S
O1406      C1429   1.273       .  A
O1407     Mg1421   2.211       .  S
O1408     Mg1438   2.351       .  S
C1409      O1422   1.280       .  A
C1409      O1414   1.253       .  A
C1409      C3498   1.481       .  S
C1410      O1437   1.264       .  A
Mg1411     O1418   2.150       .  S
Mg1411     O1419   2.204       .  S
Mg1411     O1412   2.423       .  S
Mg1411     O1413   2.298       .  S
Mg1411     O1440   2.318       .  S
O1413      C1417   1.264   1_655  A
O1414     Mg1421   2.195       .  S
O1415      C1434   1.275       .  A
O1416      C1436   1.266       .  A
O1416     Mg1432   2.261       .  S
O1418     Mg1432   2.141       .  S
O1418      C1429   1.239       .  S
O1419     Mg1438   2.235       .  S
O1420     Mg1432   2.336       .  S
Mg1421     O1437   2.281       .  S
O1422     Mg1438   2.414   1_455  S
H1423      C1428   1.082       .  S
O1424     Mg1432   2.087       .  S
O1424      C1427   1.227       .  S
H1425      C1427   1.082       .  S
H1426      C1429   1.081       .  S
O1431     Mg1438   2.326       .  S
C1434      O1439   1.287   1_455  A
O1435      C1436   1.272       .  A
O1441     Mg1443   2.045       .  S
O1441     Mg1449   2.209       .  S
O1441      C1476   1.240   1_455  S
C1442      O1455   1.239       .  S
C1442      O1479   1.275       .  A
C1442      H1481   1.081       .  S
Mg1443     O1472   2.144       .  S
Mg1443     O1487   2.367       .  S
Mg1443     O1483   2.232       .  S
Mg1443     O1454   2.313       .  S
O1444     Mg1486   2.113       .  S
O1444     Mg1469   2.140   1_455  S
O1444      C1465   1.230       .  S
O1445      C1476   1.263       .  A
O1445     Mg1469   2.227       .  S
C1446      O1448   1.253       .  A
C1446      O1460   1.296       .  A
C1446      C2310   1.486       .  S
O1447      C1475   1.257       .  A
O1447     Mg1449   2.262       .  S
O1448     Mg1480   2.167       .  S
Mg1449     O1455   2.136       .  S
Mg1449     O1463   2.249   1_455  S
Mg1449     O1451   2.210   1_455  S
C1450      O1488   1.288       .  A
C1450      O1456   1.282       .  A
C1450      C3356   1.482       .  S
O1451      C1458   1.251       .  A
H1452      C1465   1.081   1_655  S
C1453      O1467   1.245       .  S
C1453      O1468   1.281       .  A
C1453      H1478   1.082       .  S
O1454      C1477   1.273       .  A
O1455     Mg1469   2.211   1_455  S
O1456     Mg1486   2.354       .  S
C1457      O1470   1.281       .  A
C1457      O1462   1.253       .  A
C1458      O1485   1.264       .  A
C1458      C4577   1.457       .  S
Mg1459     O1466   2.149       .  S
Mg1459     O1467   2.204       .  S
Mg1459     O1460   2.425       .  S
Mg1459     O1461   2.299       .  S
Mg1459     O1488   2.317       .  S
O1461      C1465   1.264       .  A
O1462     Mg1469   2.197       .  S
O1463      C1482   1.274   1_655  A
O1464      C1484   1.266       .  A
O1464     Mg1480   2.262       .  S
O1466     Mg1480   2.141       .  S
O1466      C1477   1.239       .  S
O1467     Mg1486   2.237       .  S
O1468     Mg1480   2.336       .  S
Mg1469     O1485   2.282       .  S
O1470     Mg1486   2.420   1_655  S
H1471      C1476   1.082       .  S
O1472     Mg1480   2.084       .  S
O1472      C1475   1.227       .  S
H1473      C1475   1.082       .  S
H1474      C1477   1.081       .  S
O1479     Mg1486   2.326       .  S
C1482      O1487   1.287       .  A
C1482      C1530   1.469       .  S
O1483      C1484   1.273       .  A
C1484      C4518   1.457       .  S
O1489     Mg1491   2.045   1_455  S
O1489     Mg1497   2.209       .  S
O1489      C1524   1.240       .  S
C1490      O1503   1.239   1_655  S
C1490      O1527   1.275       .  A
C1490      H1529   1.081       .  S
Mg1491     O1520   2.144       .  S
Mg1491     O1535   2.367       .  S
Mg1491     O1531   2.232       .  S
Mg1491     O1502   2.313       .  S
O1492     Mg1534   2.114   1_455  S
O1492     Mg1517   2.139       .  S
O1492      C1513   1.230       .  S
O1493      C1524   1.263       .  A
O1493     Mg1517   2.227       .  S
C1494      O1496   1.253       .  A
C1494      O1508   1.296       .  A
C1494      C4038   1.486       .  S
O1495      C1523   1.257       .  A
O1495     Mg1497   2.263   1_655  S
O1496     Mg1528   2.167       .  S
Mg1497     O1503   2.135       .  S
Mg1497     O1511   2.249       .  S
Mg1497     O1499   2.211       .  S
C1498      O1536   1.288       .  A
C1498      O1504   1.281       .  A
C1498      C3260   1.481       .  S
O1499      C1506   1.251       .  A
H1500      C1513   1.081       .  S
C1501      O1515   1.245       .  S
C1501      O1516   1.281       .  A
C1501      H1526   1.082       .  S
O1502      C1525   1.273       .  A
O1503     Mg1517   2.211       .  S
O1504     Mg1534   2.349       .  S
C1505      O1518   1.280       .  A
C1505      O1510   1.253       .  A
C1505      C3690   1.481       .  S
C1506      O1533   1.264       .  A
C1506      C4529   1.457       .  S
Mg1507     O1514   2.149       .  S
Mg1507     O1515   2.204       .  S
Mg1507     O1508   2.424       .  S
Mg1507     O1509   2.298       .  S
Mg1507     O1536   2.318       .  S
O1509      C1513   1.264   1_655  A
O1510     Mg1517   2.197       .  S
O1511      C1530   1.274       .  A
O1512      C1532   1.266       .  A
O1512     Mg1528   2.263       .  S
O1514     Mg1528   2.140       .  S
O1514      C1525   1.239       .  S
O1515     Mg1534   2.235       .  S
O1516     Mg1528   2.336       .  S
Mg1517     O1533   2.282       .  S
O1518     Mg1534   2.414   1_455  S
H1519      C1524   1.082       .  S
O1520     Mg1528   2.084       .  S
O1520      C1523   1.227       .  S
H1521      C1523   1.082       .  S
H1522      C1525   1.081       .  S
O1527     Mg1534   2.326       .  S
C1530      O1535   1.287   1_455  A
O1531      C1532   1.273       .  A
C1532      C4566   1.457       .  S
O1537     Mg1539   2.237       .  S
O1537     Mg1545   2.204       .  S
O1537      C1572   1.245       .  S
C1538      O1551   1.239       .  S
C1538      O1575   1.273       .  A
C1538      H1577   1.081       .  S
Mg1539     O1568   2.113       .  S
Mg1539     O1583   2.354       .  S
Mg1539     O1579   2.418       .  S
Mg1539     O1550   2.327       .  S
O1540     Mg1582   2.145       .  S
O1540     Mg1565   2.086       .  S
O1540      C1561   1.227       .  S
O1541      C1572   1.281       .  A
O1541     Mg1565   2.336       .  S
C1542      O1544   1.264       .  A
C1542      O1556   1.251       .  A
O1543      C1571   1.264       .  A
O1543     Mg1545   2.299       .  S
O1544     Mg1576   2.281       .  S
Mg1545     O1551   2.150       .  S
Mg1545     O1559   2.319       .  S
Mg1545     O1547   2.426       .  S
C1546      O1584   1.275       .  A
C1546      O1552   1.287       .  A
C1546      C1594   1.470       .  S
O1547      C1554   1.296       .  A
H1548      C1561   1.082       .  S
C1549      O1563   1.240       .  S
C1549      O1564   1.263       .  A
C1549      H1574   1.082       .  S
O1550      C1573   1.275       .  A
O1551     Mg1565   2.141       .  S
O1552     Mg1582   2.369       .  S
C1553      O1566   1.272       .  A
C1553      O1558   1.266       .  A
C1554      O1581   1.253       .  A
Mg1555     O1562   2.137       .  S
Mg1555     O1563   2.208       .  S
Mg1555     O1556   2.211       .  S
Mg1555     O1557   2.263       .  S
Mg1555     O1584   2.252       .  S
O1557      C1561   1.257       .  A
O1558     Mg1565   2.262       .  S
O1559      C1578   1.288       .  A
O1560      C1580   1.253       .  A
O1560     Mg1576   2.197       .  S
O1562     Mg1576   2.211       .  S
O1562      C1573   1.239       .  S
O1563     Mg1582   2.045       .  S
O1564     Mg1576   2.227       .  S
Mg1565     O1581   2.169       .  S
O1566     Mg1582   2.230       .  S
H1567      C1572   1.082       .  S
O1568     Mg1576   2.140       .  S
O1568      C1571   1.230       .  S
H1569      C1571   1.081       .  S
H1570      C1573   1.081       .  S
O1575     Mg1582   2.313       .  S
C1578      O1583   1.281       .  A
C1578      C1745   1.482       .  S
O1579      C1580   1.280       .  A
C1580      C2026   1.483       .  S
O1585     Mg1587   2.236       .  S
O1585     Mg1593   2.204       .  S
O1585      C1620   1.245       .  S
C1586      O1599   1.239       .  S
C1586      O1623   1.274       .  A
C1586      H1625   1.081       .  S
Mg1587     O1616   2.114       .  S
Mg1587     O1631   2.356       .  S
Mg1587     O1627   2.418       .  S
Mg1587     O1598   2.327       .  S
O1588     Mg1630   2.145       .  S
O1588     Mg1613   2.086       .  S
O1588      C1609   1.227       .  S
O1589      C1620   1.281       .  A
O1589     Mg1613   2.337       .  S
C1590      O1592   1.264       .  A
C1590      O1604   1.251       .  A
O1591      C1619   1.264       .  A
O1591     Mg1593   2.299       .  S
O1592     Mg1624   2.282       .  S
Mg1593     O1599   2.152       .  S
Mg1593     O1607   2.318       .  S
Mg1593     O1595   2.423       .  S
C1594      O1632   1.275       .  A
C1594      O1600   1.287       .  A
O1595      C1602   1.295       .  A
H1596      C1609   1.082       .  S
C1597      O1611   1.240       .  S
C1597      O1612   1.263       .  A
C1597      H1622   1.082       .  S
O1598      C1621   1.275       .  A
O1599     Mg1613   2.141       .  S
O1600     Mg1630   2.370       .  S
C1601      O1614   1.272       .  A
C1601      O1606   1.266       .  A
C1602      O1629   1.253       .  A
C1602      C4386   1.486       .  S
Mg1603     O1610   2.137       .  S
Mg1603     O1611   2.208       .  S
Mg1603     O1604   2.211       .  S
Mg1603     O1605   2.263       .  S
Mg1603     O1632   2.252       .  S
O1605      C1609   1.257       .  A
O1606     Mg1613   2.263       .  S
O1607      C1626   1.288       .  A
O1608      C1628   1.253       .  A
O1608     Mg1624   2.197       .  S
O1610     Mg1624   2.211       .  S
O1610      C1621   1.239       .  S
O1611     Mg1630   2.044       .  S
O1612     Mg1624   2.227       .  S
Mg1613     O1629   2.168       .  S
O1614     Mg1630   2.231       .  S
H1615      C1620   1.082       .  S
O1616     Mg1624   2.141       .  S
O1616      C1619   1.230       .  S
H1617      C1619   1.081       .  S
H1618      C1621   1.081       .  S
O1623     Mg1630   2.314       .  S
C1626      O1631   1.282       .  A
C1626      C1937   1.483   1_565  S
O1627      C1628   1.281       .  A
O1633     Mg1635   2.238       .  S
O1633     Mg1641   2.204       .  S
O1633      C1668   1.245       .  S
C1634      O1647   1.239       .  S
C1634      O1671   1.273       .  A
C1634      H1673   1.081       .  S
Mg1635     O1664   2.113   1_655  S
Mg1635     O1679   2.356       .  S
Mg1635     O1675   2.421   1_655  S
Mg1635     O1646   2.327       .  S
O1636     Mg1678   2.145       .  S
O1636     Mg1661   2.086       .  S
O1636      C1657   1.227       .  S
O1637      C1668   1.281       .  A
O1637     Mg1661   2.337       .  S
C1638      O1640   1.264       .  A
C1638      O1652   1.251       .  A
O1639      C1667   1.264   1_655  A
O1639     Mg1641   2.299       .  S
O1640     Mg1672   2.281       .  S
Mg1641     O1647   2.150       .  S
Mg1641     O1655   2.318       .  S
Mg1641     O1643   2.426       .  S
C1642      O1680   1.275       .  A
C1642      O1648   1.287   1_455  A
C1642      C1690   1.470       .  S
O1643      C1650   1.296       .  A
H1644      C1657   1.082       .  S
C1645      O1659   1.240       .  S
C1645      O1660   1.263       .  A
C1645      H1670   1.082       .  S
O1646      C1669   1.275       .  A
O1647     Mg1661   2.141       .  S
O1648     Mg1678   2.369       .  S
C1649      O1662   1.272       .  A
C1649      O1654   1.266       .  A
C1650      O1677   1.253       .  A
Mg1651     O1658   2.137       .  S
Mg1651     O1659   2.209       .  S
Mg1651     O1652   2.211       .  S
Mg1651     O1653   2.263   1_455  S
Mg1651     O1680   2.252       .  S
O1653      C1657   1.257       .  A
O1654     Mg1661   2.262       .  S
O1655      C1674   1.288       .  A
O1656      C1676   1.253       .  A
O1656     Mg1672   2.198       .  S
O1658     Mg1672   2.211       .  S
O1658      C1669   1.239   1_455  S
O1659     Mg1678   2.045   1_455  S
O1660     Mg1672   2.227       .  S
Mg1661     O1677   2.169       .  S
O1662     Mg1678   2.232       .  S
H1663      C1668   1.082       .  S
O1664     Mg1672   2.141       .  S
O1664      C1667   1.230       .  S
H1665      C1667   1.081       .  S
H1666      C1669   1.081       .  S
O1671     Mg1678   2.313       .  S
C1674      O1679   1.282       .  A
O1675      C1676   1.281       .  A
C1676      C2074   1.483       .  S
O1681     Mg1683   2.237       .  S
O1681     Mg1689   2.204       .  S
O1681      C1716   1.245       .  S
C1682      O1695   1.239       .  S
C1682      O1719   1.273       .  A
C1682      H1721   1.081       .  S
Mg1683     O1712   2.114       .  S
Mg1683     O1727   2.352       .  S
Mg1683     O1723   2.416   1_455  S
Mg1683     O1694   2.326       .  S
O1684     Mg1726   2.145       .  S
O1684     Mg1709   2.086       .  S
O1684      C1705   1.227       .  S
O1685      C1716   1.281       .  A
O1685     Mg1709   2.336       .  S
C1686      O1688   1.264       .  A
C1686      O1700   1.251       .  A
O1687      C1715   1.264       .  A
O1687     Mg1689   2.299       .  S
O1688     Mg1720   2.282       .  S
Mg1689     O1695   2.150       .  S
Mg1689     O1703   2.319       .  S
Mg1689     O1691   2.426       .  S
C1690      O1728   1.275   1_455  A
C1690      O1696   1.287       .  A
O1691      C1698   1.296       .  A
H1692      C1705   1.082       .  S
C1693      O1707   1.240   1_655  S
C1693      O1708   1.263       .  A
C1693      H1718   1.082       .  S
O1694      C1717   1.275       .  A
O1695     Mg1709   2.140       .  S
O1696     Mg1726   2.369       .  S
C1697      O1710   1.272       .  A
C1697      O1702   1.266       .  A
C1698      O1725   1.253       .  A
C1698      C3618   1.487       .  S
Mg1699     O1706   2.137       .  S
Mg1699     O1707   2.209       .  S
Mg1699     O1700   2.211   1_455  S
Mg1699     O1701   2.263       .  S
Mg1699     O1728   2.252   1_455  S
O1701      C1705   1.257       .  A
O1702     Mg1709   2.262       .  S
O1703      C1722   1.288       .  A
O1704      C1724   1.253       .  A
O1704     Mg1720   2.198       .  S
O1706     Mg1720   2.211   1_455  S
O1706      C1717   1.239       .  S
O1707     Mg1726   2.045       .  S
O1708     Mg1720   2.227       .  S
Mg1709     O1725   2.168       .  S
O1710     Mg1726   2.231       .  S
H1711      C1716   1.082       .  S
O1712     Mg1720   2.140   1_455  S
O1712      C1715   1.230       .  S
H1713      C1715   1.081   1_655  S
H1714      C1717   1.081       .  S
O1719     Mg1726   2.313       .  S
C1722      O1727   1.281       .  A
C1722      C2609   1.482   1_565  S
O1723      C1724   1.280       .  A
O1729     Mg1731   2.044       .  S
O1729     Mg1737   2.208       .  S
O1729      C1764   1.240       .  S
C1730      O1743   1.239       .  S
C1730      O1767   1.275       .  A
C1730      H1769   1.081       .  S
Mg1731     O1760   2.145       .  S
Mg1731     O1775   2.369       .  S
Mg1731     O1771   2.230       .  S
Mg1731     O1742   2.314       .  S
O1732     Mg1774   2.114       .  S
O1732     Mg1757   2.140       .  S
O1732      C1753   1.230       .  S
O1733      C1764   1.263       .  A
O1733     Mg1757   2.227       .  S
C1734      O1736   1.253       .  A
C1734      O1748   1.296       .  A
O1735      C1763   1.257       .  A
O1735     Mg1737   2.263       .  S
O1736     Mg1768   2.169       .  S
Mg1737     O1743   2.136       .  S
Mg1737     O1751   2.252       .  S
Mg1737     O1739   2.211       .  S
C1738      O1776   1.288       .  A
C1738      O1744   1.281       .  A
O1739      C1746   1.251       .  A
H1740      C1753   1.081       .  S
C1741      O1755   1.245       .  S
C1741      O1756   1.281       .  A
C1741      H1766   1.082       .  S
O1742      C1765   1.274       .  A
O1743     Mg1757   2.211       .  S
O1744     Mg1774   2.353       .  S
C1745      O1758   1.280       .  A
C1745      O1750   1.253       .  A
C1746      O1773   1.264       .  A
Mg1747     O1754   2.151       .  S
Mg1747     O1755   2.204       .  S
Mg1747     O1748   2.425       .  S
Mg1747     O1749   2.299       .  S
Mg1747     O1776   2.319       .  S
O1749      C1753   1.264       .  A
O1750     Mg1757   2.196       .  S
O1751      C1770   1.275       .  A
O1752      C1772   1.266       .  A
O1752     Mg1768   2.263       .  S
O1754     Mg1768   2.141       .  S
O1754      C1765   1.239       .  S
O1755     Mg1774   2.237       .  S
O1756     Mg1768   2.337       .  S
Mg1757     O1773   2.281       .  S
O1758     Mg1774   2.418       .  S
H1759      C1764   1.082       .  S
O1760     Mg1768   2.086       .  S
O1760      C1763   1.227       .  S
H1761      C1763   1.082       .  S
H1762      C1765   1.081       .  S
O1767     Mg1774   2.326       .  S
C1770      O1775   1.287       .  A
C1770      C1818   1.470       .  S
O1771      C1772   1.272       .  A
O1777     Mg1779   2.045       .  S
O1777     Mg1785   2.208       .  S
O1777      C1812   1.240       .  S
C1778      O1791   1.239       .  S
C1778      O1815   1.275       .  A
C1778      H1817   1.081       .  S
Mg1779     O1808   2.145       .  S
Mg1779     O1823   2.369       .  S
Mg1779     O1819   2.231       .  S
Mg1779     O1790   2.313       .  S
O1780     Mg1822   2.113       .  S
O1780     Mg1805   2.139       .  S
O1780      C1801   1.230       .  S
O1781      C1812   1.263       .  A
O1781     Mg1805   2.227       .  S
C1782      O1784   1.253       .  A
C1782      O1796   1.296       .  A
C1782      C1830   1.487       .  S
O1783      C1811   1.257       .  A
O1783     Mg1785   2.263       .  S
O1784     Mg1816   2.168       .  S
Mg1785     O1791   2.137       .  S
Mg1785     O1799   2.252       .  S
Mg1785     O1787   2.211       .  S
C1786      O1824   1.288       .  A
C1786      O1792   1.281       .  A
C1786      C2540   1.482       .  S
O1787      C1794   1.251       .  A
H1788      C1801   1.081       .  S
C1789      O1803   1.245       .  S
C1789      O1804   1.281       .  A
C1789      H1814   1.082       .  S
O1790      C1813   1.273       .  A
O1791     Mg1805   2.211       .  S
O1792     Mg1822   2.351       .  S
C1793      O1806   1.280       .  A
C1793      O1798   1.253       .  A
C1793      C3930   1.482       .  S
C1794      O1821   1.264       .  A
Mg1795     O1802   2.150       .  S
Mg1795     O1803   2.204       .  S
Mg1795     O1796   2.425       .  S
Mg1795     O1797   2.299       .  S
Mg1795     O1824   2.318       .  S
O1797      C1801   1.264       .  A
O1798     Mg1805   2.197       .  S
O1799      C1818   1.275       .  A
O1800      C1820   1.266       .  A
O1800     Mg1816   2.262       .  S
O1802     Mg1816   2.140       .  S
O1802      C1813   1.239       .  S
O1803     Mg1822   2.237       .  S
O1804     Mg1816   2.336       .  S
Mg1805     O1821   2.281       .  S
O1806     Mg1822   2.417       .  S
H1807      C1812   1.082       .  S
O1808     Mg1816   2.086       .  S
O1808      C1811   1.227       .  S
H1809      C1811   1.082       .  S
H1810      C1813   1.081       .  S
O1815     Mg1822   2.326       .  S
C1818      O1823   1.287       .  A
O1819      C1820   1.272       .  A
O1825     Mg1827   2.045       .  S
O1825     Mg1833   2.208       .  S
O1825      C1860   1.240       .  S
C1826      O1839   1.239       .  S
C1826      O1863   1.275       .  A
C1826      H1865   1.081       .  S
Mg1827     O1856   2.145       .  S
Mg1827     O1871   2.369       .  S
Mg1827     O1867   2.231       .  S
Mg1827     O1838   2.313       .  S
O1828     Mg1870   2.114       .  S
O1828     Mg1853   2.140       .  S
O1828      C1849   1.230       .  S
O1829      C1860   1.263       .  A
O1829     Mg1853   2.227       .  S
C1830      O1832   1.253       .  A
C1830      O1844   1.296       .  A
O1831      C1859   1.257       .  A
O1831     Mg1833   2.263       .  S
O1832     Mg1864   2.169       .  S
Mg1833     O1839   2.138       .  S
Mg1833     O1847   2.252       .  S
Mg1833     O1835   2.211       .  S
C1834      O1872   1.288       .  A
C1834      O1840   1.282       .  A
O1835      C1842   1.251       .  A
H1836      C1849   1.081       .  S
C1837      O1851   1.245       .  S
C1837      O1852   1.281       .  A
C1837      H1862   1.082       .  S
O1838      C1861   1.273       .  A
O1839     Mg1853   2.211       .  S
O1840     Mg1870   2.355       .  S
C1841      O1854   1.280       .  A
C1841      O1846   1.253       .  A
C1842      O1869   1.264       .  A
C1842      C2561   1.457       .  S
Mg1843     O1850   2.149       .  S
Mg1843     O1851   2.204       .  S
Mg1843     O1844   2.425       .  S
Mg1843     O1845   2.299       .  S
Mg1843     O1872   2.317       .  S
O1845      C1849   1.264       .  A
O1846     Mg1853   2.197       .  S
O1847      C1866   1.275       .  A
O1848      C1868   1.266       .  A
O1848     Mg1864   2.261       .  S
O1850     Mg1864   2.140       .  S
O1850      C1861   1.239       .  S
O1851     Mg1870   2.236       .  S
O1852     Mg1864   2.336       .  S
Mg1853     O1869   2.282       .  S
O1854     Mg1870   2.417       .  S
H1855      C1860   1.082       .  S
O1856     Mg1864   2.086       .  S
O1856      C1859   1.227       .  S
H1857      C1859   1.082       .  S
H1858      C1861   1.081       .  S
O1863     Mg1870   2.327       .  S
C1866      O1871   1.287       .  A
C1866      C1914   1.470       .  S
O1867      C1868   1.272       .  A
C1868      C2502   1.457       .  S
O1873     Mg1875   2.044       .  S
O1873     Mg1881   2.208       .  S
O1873      C1908   1.240       .  S
C1874      O1887   1.239       .  S
C1874      O1911   1.275       .  A
C1874      H1913   1.081       .  S
Mg1875     O1904   2.145       .  S
Mg1875     O1919   2.370       .  S
Mg1875     O1915   2.231       .  S
Mg1875     O1886   2.314       .  S
O1876     Mg1918   2.114       .  S
O1876     Mg1901   2.140       .  S
O1876      C1897   1.230       .  S
O1877      C1908   1.263       .  A
O1877     Mg1901   2.227       .  S
C1878      O1880   1.253       .  A
C1878      O1892   1.295       .  A
O1879      C1907   1.257       .  A
O1879     Mg1881   2.263       .  S
O1880     Mg1912   2.169       .  S
Mg1881     O1887   2.137       .  S
Mg1881     O1895   2.252       .  S
Mg1881     O1883   2.211       .  S
C1882      O1920   1.288       .  A
C1882      O1888   1.281       .  A
O1883      C1890   1.251       .  A
H1884      C1897   1.081       .  S
C1885      O1899   1.245       .  S
C1885      O1900   1.281       .  A
C1885      H1910   1.082       .  S
O1886      C1909   1.273       .  A
O1887     Mg1901   2.211       .  S
O1888     Mg1918   2.354       .  S
C1889      O1902   1.280       .  A
C1889      O1894   1.253       .  A
C1890      O1917   1.264       .  A
C1890      C2513   1.457       .  S
Mg1891     O1898   2.151       .  S
Mg1891     O1899   2.204       .  S
Mg1891     O1892   2.423       .  S
Mg1891     O1893   2.299       .  S
Mg1891     O1920   2.319       .  S
O1893      C1897   1.264       .  A
O1894     Mg1901   2.196       .  S
O1895      C1914   1.275   1_556  A
O1896      C1916   1.266       .  A
O1896     Mg1912   2.261       .  S
O1898     Mg1912   2.141       .  S
O1898      C1909   1.239       .  S
O1899     Mg1918   2.236       .  S
O1900     Mg1912   2.336       .  S
Mg1901     O1917   2.282       .  S
O1902     Mg1918   2.416       .  S
H1903      C1908   1.082       .  S
O1904     Mg1912   2.086       .  S
O1904      C1907   1.227       .  S
H1905      C1907   1.082       .  S
H1906      C1909   1.081       .  S
O1911     Mg1918   2.327       .  S
C1914      O1919   1.287   1_554  A
O1915      C1916   1.272       .  A
C1916      C2550   1.457       .  S
O1921     Mg1923   2.045       .  S
O1921     Mg1929   2.210       .  S
O1921      C1956   1.240       .  S
C1922      O1935   1.239       .  S
C1922      O1959   1.275       .  A
C1922      H1961   1.081       .  S
Mg1923     O1952   2.145       .  S
Mg1923     O1967   2.369       .  S
Mg1923     O1963   2.233       .  S
Mg1923     O1934   2.313       .  S
O1924     Mg1966   2.113       .  S
O1924     Mg1949   2.141       .  S
O1924      C1945   1.230       .  S
O1925      C1956   1.263       .  A
O1925     Mg1949   2.227       .  S
C1926      O1928   1.253       .  A
C1926      O1940   1.295       .  A
C1926      C2742   1.486       .  S
O1927      C1955   1.257       .  A
O1927     Mg1929   2.263       .  S
O1928     Mg1960   2.168       .  S
Mg1929     O1935   2.138       .  S
Mg1929     O1943   2.252       .  S
Mg1929     O1931   2.211   1_545  S
C1930      O1968   1.288       .  A
C1930      O1936   1.282       .  A
C1930      C3740   1.483       .  S
O1931      C1938   1.251       .  A
H1932      C1945   1.081       .  S
C1933      O1947   1.245       .  S
C1933      O1948   1.281       .  A
C1933      H1958   1.082       .  S
O1934      C1957   1.273       .  A
O1935     Mg1949   2.211       .  S
O1936     Mg1966   2.357       .  S
C1937      O1950   1.281       .  A
C1937      O1942   1.253       .  A
C1938      O1965   1.264       .  A
C1938      C4385   1.457       .  S
Mg1939     O1946   2.151       .  S
Mg1939     O1947   2.204       .  S
Mg1939     O1940   2.425       .  S
Mg1939     O1941   2.299       .  S
Mg1939     O1968   2.317       .  S
O1941      C1945   1.264       .  A
O1942     Mg1949   2.198       .  S
O1943      C1962   1.275       .  A
O1944      C1964   1.266       .  A
O1944     Mg1960   2.261       .  S
O1946     Mg1960   2.141       .  S
O1946      C1957   1.239       .  S
O1947     Mg1966   2.237       .  S
O1948     Mg1960   2.336       .  S
Mg1949     O1965   2.282   1_545  S
O1950     Mg1966   2.419       .  S
H1951      C1956   1.082       .  S
O1952     Mg1960   2.085       .  S
O1952      C1955   1.227       .  S
H1953      C1955   1.082       .  S
H1954      C1957   1.081       .  S
O1959     Mg1966   2.327       .  S
C1962      O1967   1.287       .  A
C1962      C2010   1.470       .  S
O1963      C1964   1.273       .  A
C1964      C4326   1.457       .  S
O1969     Mg1971   2.045       .  S
O1969     Mg1977   2.209       .  S
O1969      C2004   1.240       .  S
C1970      O1983   1.239       .  S
C1970      O2007   1.275       .  A
C1970      H2009   1.081       .  S
Mg1971     O2000   2.145   1_545  S
Mg1971     O2015   2.369       .  S
Mg1971     O2011   2.232   1_545  S
Mg1971     O1982   2.313       .  S
O1972     Mg2014   2.114       .  S
O1972     Mg1997   2.140       .  S
O1972      C1993   1.230       .  S
O1973      C2004   1.263       .  A
O1973     Mg1997   2.227       .  S
C1974      O1976   1.253       .  A
C1974      O1988   1.295       .  A
C1974      C3942   1.486       .  S
O1975      C2003   1.257   1_545  A
O1975     Mg1977   2.263       .  S
O1976     Mg2008   2.168       .  S
Mg1977     O1983   2.138       .  S
Mg1977     O1991   2.252       .  S
Mg1977     O1979   2.211       .  S
C1978      O2016   1.288       .  A
C1978      O1984   1.281   1_565  A
C1978      C3548   1.482       .  S
O1979      C1986   1.251       .  A
H1980      C1993   1.081       .  S
C1981      O1995   1.245       .  S
C1981      O1996   1.281       .  A
C1981      H2006   1.082       .  S
O1982      C2005   1.273   1_545  A
O1983     Mg1997   2.211       .  S
O1984     Mg2014   2.354       .  S
C1985      O1998   1.280       .  A
C1985      O1990   1.253       .  A
C1985      C3882   1.482       .  S
C1986      O2013   1.264       .  A
C1986      C4337   1.457       .  S
Mg1987     O1994   2.149       .  S
Mg1987     O1995   2.204       .  S
Mg1987     O1988   2.425       .  S
Mg1987     O1989   2.299   1_565  S
Mg1987     O2016   2.317       .  S
O1989      C1993   1.264       .  A
O1990     Mg1997   2.198       .  S
O1991      C2010   1.275       .  A
O1992      C2012   1.266       .  A
O1992     Mg2008   2.262       .  S
O1994     Mg2008   2.140       .  S
O1994      C2005   1.239       .  S
O1995     Mg2014   2.236   1_565  S
O1996     Mg2008   2.336       .  S
Mg1997     O2013   2.282       .  S
O1998     Mg2014   2.416       .  S
H1999      C2004   1.082       .  S
O2000     Mg2008   2.086       .  S
O2000      C2003   1.227       .  S
H2001      C2003   1.082       .  S
H2002      C2005   1.081       .  S
O2007     Mg2014   2.327       .  S
C2010      O2015   1.287       .  A
O2011      C2012   1.273       .  A
C2012      C4374   1.457       .  S
O2017     Mg2019   2.044       .  S
O2017     Mg2025   2.208       .  S
O2017      C2052   1.240       .  S
C2018      O2031   1.239       .  S
C2018      O2055   1.275       .  A
C2018      H2057   1.081       .  S
Mg2019     O2048   2.145       .  S
Mg2019     O2063   2.371       .  S
Mg2019     O2059   2.230       .  S
Mg2019     O2030   2.314       .  S
O2020     Mg2062   2.114       .  S
O2020     Mg2045   2.140       .  S
O2020      C2041   1.230       .  S
O2021      C2052   1.263       .  A
O2021     Mg2045   2.227       .  S
C2022      O2024   1.253       .  A
C2022      O2036   1.295       .  A
O2023      C2051   1.257       .  A
O2023     Mg2025   2.263       .  S
O2024     Mg2056   2.169       .  S
Mg2025     O2031   2.138       .  S
Mg2025     O2039   2.254       .  S
Mg2025     O2027   2.211       .  S
C2026      O2064   1.288       .  A
C2026      O2032   1.281       .  A
O2027      C2034   1.251       .  A
H2028      C2041   1.081       .  S
C2029      O2043   1.245       .  S
C2029      O2044   1.281       .  A
C2029      H2054   1.082       .  S
O2030      C2053   1.274       .  A
O2031     Mg2045   2.211       .  S
O2032     Mg2062   2.355       .  S
C2033      O2046   1.280       .  A
C2033      O2038   1.253       .  A
C2033      C3114   1.482       .  S
C2034      O2061   1.264       .  A
Mg2035     O2042   2.151       .  S
Mg2035     O2043   2.204       .  S
Mg2035     O2036   2.424       .  S
Mg2035     O2037   2.299       .  S
Mg2035     O2064   2.319       .  S
O2037      C2041   1.264       .  A
O2038     Mg2045   2.197       .  S
O2039      C2058   1.275       .  A
O2040      C2060   1.266       .  A
O2040     Mg2056   2.262       .  S
O2042     Mg2056   2.141       .  S
O2042      C2053   1.239       .  S
O2043     Mg2062   2.236       .  S
O2044     Mg2056   2.336       .  S
Mg2045     O2061   2.281       .  S
O2046     Mg2062   2.417       .  S
H2047      C2052   1.082       .  S
O2048     Mg2056   2.087       .  S
O2048      C2051   1.227       .  S
H2049      C2051   1.082       .  S
H2050      C2053   1.081       .  S
O2055     Mg2062   2.327       .  S
C2058      O2063   1.287       .  A
C2058      C2106   1.471       .  S
O2059      C2060   1.272       .  A
O2065     Mg2067   2.044       .  S
O2065     Mg2073   2.208       .  S
O2065      C2100   1.240       .  S
C2066      O2079   1.239       .  S
C2066      O2103   1.275       .  A
C2066      H2105   1.081       .  S
Mg2067     O2096   2.145       .  S
Mg2067     O2111   2.371       .  S
Mg2067     O2107   2.230       .  S
Mg2067     O2078   2.314       .  S
O2068     Mg2110   2.114       .  S
O2068     Mg2093   2.141       .  S
O2068      C2089   1.230       .  S
O2069      C2100   1.263       .  A
O2069     Mg2093   2.227       .  S
C2070      O2072   1.253       .  A
C2070      O2084   1.295       .  A
O2071      C2099   1.257       .  A
O2071     Mg2073   2.263       .  S
O2072     Mg2104   2.169       .  S
Mg2073     O2079   2.139       .  S
Mg2073     O2087   2.255       .  S
Mg2073     O2075   2.211       .  S
C2074      O2112   1.288       .  A
C2074      O2080   1.282       .  A
O2075      C2082   1.251       .  A
H2076      C2089   1.081       .  S
C2077      O2091   1.245       .  S
C2077      O2092   1.281       .  A
C2077      H2102   1.082       .  S
O2078      C2101   1.274       .  A
O2079     Mg2093   2.211       .  S
O2080     Mg2110   2.357       .  S
C2081      O2094   1.281       .  A
C2081      O2086   1.253       .  A
C2081      C3354   1.483       .  S
C2082      O2109   1.264       .  A
Mg2083     O2090   2.152       .  S
Mg2083     O2091   2.204       .  S
Mg2083     O2084   2.425       .  S
Mg2083     O2085   2.299       .  S
Mg2083     O2112   2.319       .  S
O2085      C2089   1.264       .  A
O2086     Mg2093   2.198       .  S
O2087      C2106   1.275       .  A
O2088      C2108   1.266       .  A
O2088     Mg2104   2.263       .  S
O2090     Mg2104   2.141       .  S
O2090      C2101   1.239       .  S
O2091     Mg2110   2.237       .  S
O2092     Mg2104   2.337       .  S
Mg2093     O2109   2.281       .  S
O2094     Mg2110   2.419       .  S
H2095      C2100   1.082       .  S
O2096     Mg2104   2.086       .  S
O2096      C2099   1.227       .  S
H2097      C2099   1.082       .  S
H2098      C2101   1.081       .  S
O2103     Mg2110   2.327       .  S
C2106      O2111   1.287       .  A
O2107      C2108   1.272       .  A
O2113     Mg2115   2.043       .  S
O2113     Mg2121   2.208       .  S
O2113      C2148   1.240       .  S
C2114      O2127   1.239       .  S
C2114      O2151   1.275       .  A
C2114      H2153   1.081       .  S
Mg2115     O2144   2.145       .  S
Mg2115     O2159   2.369       .  S
Mg2115     O2155   2.229       .  S
Mg2115     O2126   2.314       .  S
O2116     Mg2158   2.115       .  S
O2116     Mg2141   2.139       .  S
O2116      C2137   1.230       .  S
O2117      C2148   1.263       .  A
O2117     Mg2141   2.227       .  S
C2118      O2120   1.253       .  A
C2118      O2132   1.295       .  A
O2119      C2147   1.257       .  A
O2119     Mg2121   2.263       .  S
O2120     Mg2152   2.168       .  S
Mg2121     O2127   2.135       .  S
Mg2121     O2135   2.251       .  S
Mg2121     O2123   2.211       .  S
C2122      O2160   1.288       .  A
C2122      O2128   1.281       .  A
C2122      C4460   1.482       .  S
O2123      C2130   1.251       .  A
H2124      C2137   1.081       .  S
C2125      O2139   1.245       .  S
C2125      O2140   1.281       .  A
C2125      H2150   1.082       .  S
O2126      C2149   1.274       .  A
O2127     Mg2141   2.211       .  S
O2128     Mg2158   2.350       .  S
C2129      O2142   1.280       .  A
C2129      O2134   1.253       .  A
C2129      C4218   1.481       .  S
C2130      O2157   1.264       .  A
C2130      C3137   1.457       .  S
Mg2131     O2138   2.151       .  S
Mg2131     O2139   2.204       .  S
Mg2131     O2132   2.423       .  S
Mg2131     O2133   2.298       .  S
Mg2131     O2160   2.319       .  S
O2133      C2137   1.264       .  A
O2134     Mg2141   2.195       .  S
O2135      C2154   1.275       .  A
O2136      C2156   1.266       .  A
O2136     Mg2152   2.263       .  S
O2138     Mg2152   2.141       .  S
O2138      C2149   1.239       .  S
O2139     Mg2158   2.235       .  S
O2140     Mg2152   2.336       .  S
Mg2141     O2157   2.282       .  S
O2142     Mg2158   2.413       .  S
H2143      C2148   1.082       .  S
O2144     Mg2152   2.086       .  S
O2144      C2147   1.227       .  S
H2145      C2147   1.082       .  S
H2146      C2149   1.081       .  S
O2151     Mg2158   2.326       .  S
C2154      O2159   1.287       .  A
C2154      C2202   1.470       .  S
O2155      C2156   1.272       .  A
C2156      C3078   1.457       .  S
O2161     Mg2163   2.044       .  S
O2161     Mg2169   2.208       .  S
O2161      C2196   1.240       .  S
C2162      O2175   1.239       .  S
C2162      O2199   1.275       .  A
C2162      H2201   1.081       .  S
Mg2163     O2192   2.145       .  S
Mg2163     O2207   2.368       .  S
Mg2163     O2203   2.229       .  S
Mg2163     O2174   2.313       .  S
O2164     Mg2206   2.113       .  S
O2164     Mg2189   2.140       .  S
O2164      C2185   1.230       .  S
O2165      C2196   1.263       .  A
O2165     Mg2189   2.227       .  S
C2166      O2168   1.253       .  A
C2166      O2180   1.296       .  A
O2167      C2195   1.257       .  A
O2167     Mg2169   2.263       .  S
O2168     Mg2200   2.169       .  S
Mg2169     O2175   2.136       .  S
Mg2169     O2183   2.252       .  S
Mg2169     O2171   2.211       .  S
C2170      O2208   1.288       .  A
C2170      O2176   1.281       .  A
O2171      C2178   1.251       .  A
H2172      C2185   1.081       .  S
C2173      O2187   1.245       .  S
C2173      O2188   1.281       .  A
C2173      H2198   1.082       .  S
O2174      C2197   1.273       .  A
O2175     Mg2189   2.211       .  S
O2176     Mg2206   2.353       .  S
C2177      O2190   1.281       .  A
C2177      O2182   1.253       .  A
C2178      O2205   1.264       .  A
C2178      C3089   1.456       .  S
Mg2179     O2186   2.149       .  S
Mg2179     O2187   2.204       .  S
Mg2179     O2180   2.426       .  S
Mg2179     O2181   2.299       .  S
Mg2179     O2208   2.317       .  S
O2181      C2185   1.264       .  A
O2182     Mg2189   2.197       .  S
O2183      C2202   1.275       .  A
O2184      C2204   1.266       .  A
O2184     Mg2200   2.262       .  S
O2186     Mg2200   2.140       .  S
O2186      C2197   1.239       .  S
O2187     Mg2206   2.238       .  S
O2188     Mg2200   2.337       .  S
Mg2189     O2205   2.281       .  S
O2190     Mg2206   2.420       .  S
H2191      C2196   1.082       .  S
O2192     Mg2200   2.086       .  S
O2192      C2195   1.227       .  S
H2193      C2195   1.082       .  S
H2194      C2197   1.081       .  S
O2199     Mg2206   2.326       .  S
C2202      O2207   1.287       .  A
O2203      C2204   1.272       .  A
C2204      C3126   1.457       .  S
O2209     Mg2211   2.044       .  S
O2209     Mg2217   2.209       .  S
O2209      C2244   1.240   1_554  S
C2210      O2223   1.239       .  S
C2210      O2247   1.275       .  A
C2210      H2249   1.081       .  S
Mg2211     O2240   2.145       .  S
Mg2211     O2255   2.370       .  S
Mg2211     O2251   2.231       .  S
Mg2211     O2222   2.314       .  S
O2212     Mg2254   2.114       .  S
O2212     Mg2237   2.139   1_554  S
O2212      C2233   1.230       .  S
O2213      C2244   1.263       .  A
O2213     Mg2237   2.227       .  S
C2214      O2216   1.253       .  A
C2214      O2228   1.295       .  A
C2214      C3030   1.486       .  S
O2215      C2243   1.257       .  A
O2215     Mg2217   2.263       .  S
O2216     Mg2248   2.168       .  S
Mg2217     O2223   2.136       .  S
Mg2217     O2231   2.251       .  S
Mg2217     O2219   2.210   1_554  S
C2218      O2256   1.288       .  A
C2218      O2224   1.281       .  A
C2218      C3932   1.482       .  S
O2219      C2226   1.251       .  A
H2220      C2233   1.081   1_556  S
C2221      O2235   1.244       .  S
C2221      O2236   1.281       .  A
C2221      H2246   1.082       .  S
O2222      C2245   1.273       .  A
O2223     Mg2237   2.211   1_554  S
O2224     Mg2254   2.350       .  S
C2225      O2238   1.280       .  A
C2225      O2230   1.253       .  A
C2225      C3162   1.481       .  S
C2226      O2253   1.264       .  A
C2226      C4193   1.457       .  S
Mg2227     O2234   2.151       .  S
Mg2227     O2235   2.204       .  S
Mg2227     O2228   2.422       .  S
Mg2227     O2229   2.298       .  S
Mg2227     O2256   2.319       .  S
O2229      C2233   1.264       .  A
O2230     Mg2237   2.195       .  S
O2231      C2250   1.275       .  A
O2232      C2252   1.266       .  A
O2232     Mg2248   2.262       .  S
O2234     Mg2248   2.141       .  S
O2234      C2245   1.239       .  S
O2235     Mg2254   2.235       .  S
O2236     Mg2248   2.336       .  S
Mg2237     O2253   2.282       .  S
O2238     Mg2254   2.414   1_556  S
H2239      C2244   1.082       .  S
O2240     Mg2248   2.085       .  S
O2240      C2243   1.227       .  S
H2241      C2243   1.082       .  S
H2242      C2245   1.081       .  S
O2247     Mg2254   2.326       .  S
C2250      O2255   1.287       .  A
C2250      C2298   1.470       .  S
O2251      C2252   1.272       .  A
C2252      C4134   1.457       .  S
O2257     Mg2259   2.044   1_554  S
O2257     Mg2265   2.209       .  S
O2257      C2292   1.240       .  S
C2258      O2271   1.239       .  S
C2258      O2295   1.275   1_554  A
C2258      H2297   1.081       .  S
Mg2259     O2288   2.144       .  S
Mg2259     O2303   2.369       .  S
Mg2259     O2299   2.230       .  S
Mg2259     O2270   2.314       .  S
O2260     Mg2302   2.113   1_554  S
O2260     Mg2285   2.140       .  S
O2260      C2281   1.230       .  S
O2261      C2292   1.263       .  A
O2261     Mg2285   2.227       .  S
C2262      O2264   1.253       .  A
C2262      O2276   1.295       .  A
C2262      C4230   1.486       .  S
O2263      C2291   1.257       .  A
O2263     Mg2265   2.263   1_556  S
O2264     Mg2296   2.168       .  S
Mg2265     O2271   2.137       .  S
Mg2265     O2279   2.251       .  S
Mg2265     O2267   2.210       .  S
C2266      O2304   1.288       .  A
C2266      O2272   1.282       .  A
C2266      C3836   1.483       .  S
O2267      C2274   1.251       .  A
H2268      C2281   1.081       .  S
C2269      O2283   1.245       .  S
C2269      O2284   1.281       .  A
C2269      H2294   1.082       .  S
O2270      C2293   1.273       .  A
O2271     Mg2285   2.211       .  S
O2272     Mg2302   2.355       .  S
C2273      O2286   1.281       .  A
C2273      O2278   1.253       .  A
C2273      C3306   1.483       .  S
C2274      O2301   1.264       .  A
C2274      C4145   1.457       .  S
Mg2275     O2282   2.151       .  S
Mg2275     O2283   2.204       .  S
Mg2275     O2276   2.425       .  S
Mg2275     O2277   2.299       .  S
Mg2275     O2304   2.318       .  S
O2277      C2281   1.264   1_556  A
O2278     Mg2285   2.198       .  S
O2279      C2298   1.275       .  A
O2280      C2300   1.266       .  A
O2280     Mg2296   2.263       .  S
O2282     Mg2296   2.140       .  S
O2282      C2293   1.239       .  S
O2283     Mg2302   2.237       .  S
O2284     Mg2296   2.336       .  S
Mg2285     O2301   2.282       .  S
O2286     Mg2302   2.418   1_554  S
H2287      C2292   1.082       .  S
O2288     Mg2296   2.085       .  S
O2288      C2291   1.227       .  S
H2289      C2291   1.082       .  S
H2290      C2293   1.081       .  S
O2295     Mg2302   2.327       .  S
C2298      O2303   1.287   1_554  A
O2299      C2300   1.272       .  A
C2300      C4182   1.457       .  S
O2305     Mg2307   2.045       .  S
O2305     Mg2313   2.209       .  S
O2305      C2340   1.240       .  S
C2306      O2319   1.239       .  S
C2306      O2343   1.275       .  A
C2306      H2345   1.081       .  S
Mg2307     O2336   2.144       .  S
Mg2307     O2351   2.369       .  S
Mg2307     O2347   2.233       .  S
Mg2307     O2318   2.313       .  S
O2308     Mg2350   2.114       .  S
O2308     Mg2333   2.140       .  S
O2308      C2329   1.230       .  S
O2309      C2340   1.263       .  A
O2309     Mg2333   2.227       .  S
C2310      O2312   1.253       .  A
C2310      O2324   1.296       .  A
O2311      C2339   1.257       .  A
O2311     Mg2313   2.262       .  S
O2312     Mg2344   2.167       .  S
Mg2313     O2319   2.137       .  S
Mg2313     O2327   2.251       .  S
Mg2313     O2315   2.210       .  S
C2314      O2352   1.288       .  A
C2314      O2320   1.282       .  A
C2314      C4556   1.483       .  S
O2315      C2322   1.251       .  A
H2316      C2329   1.081       .  S
C2317      O2331   1.245       .  S
C2317      O2332   1.281       .  A
C2317      H2342   1.082       .  S
O2318      C2341   1.273       .  A
O2319     Mg2333   2.211       .  S
O2320     Mg2350   2.355       .  S
C2321      O2334   1.280       .  A
C2321      O2326   1.253       .  A
C2321      C4170   1.482       .  S
C2322      O2349   1.264       .  A
C2322      C3281   1.457       .  S
Mg2323     O2330   2.151       .  S
Mg2323     O2331   2.204       .  S
Mg2323     O2324   2.425       .  S
Mg2323     O2325   2.299       .  S
Mg2323     O2352   2.319       .  S
O2325      C2329   1.264       .  A
O2326     Mg2333   2.198       .  S
O2327      C2346   1.275       .  A
O2328      C2348   1.266       .  A
O2328     Mg2344   2.262       .  S
O2330     Mg2344   2.141       .  S
O2330      C2341   1.239       .  S
O2331     Mg2350   2.236       .  S
O2332     Mg2344   2.336       .  S
Mg2333     O2349   2.282       .  S
O2334     Mg2350   2.417       .  S
H2335      C2340   1.082       .  S
O2336     Mg2344   2.085       .  S
O2336      C2339   1.227       .  S
H2337      C2339   1.082       .  S
H2338      C2341   1.081       .  S
O2343     Mg2350   2.327       .  S
C2346      O2351   1.287       .  A
C2346      C2394   1.470       .  S
O2347      C2348   1.273       .  A
C2348      C3318   1.457       .  S
O2353     Mg2355   2.046       .  S
O2353     Mg2361   2.209       .  S
O2353      C2388   1.240       .  S
C2354      O2367   1.239       .  S
C2354      O2391   1.275       .  A
C2354      H2393   1.081       .  S
Mg2355     O2384   2.145       .  S
Mg2355     O2399   2.368       .  S
Mg2355     O2395   2.232       .  S
Mg2355     O2366   2.312       .  S
O2356     Mg2398   2.113       .  S
O2356     Mg2381   2.140       .  S
O2356      C2377   1.230       .  S
O2357      C2388   1.263       .  A
O2357     Mg2381   2.228       .  S
C2358      O2360   1.253       .  A
C2358      O2372   1.296       .  A
O2359      C2387   1.257       .  A
O2359     Mg2361   2.263       .  S
O2360     Mg2392   2.169       .  S
Mg2361     O2367   2.138       .  S
Mg2361     O2375   2.252       .  S
Mg2361     O2363   2.211       .  S
C2362      O2400   1.288       .  A
C2362      O2368   1.282       .  A
O2363      C2370   1.251       .  A
H2364      C2377   1.081       .  S
C2365      O2379   1.245       .  S
C2365      O2380   1.281       .  A
C2365      H2390   1.082       .  S
O2366      C2389   1.273       .  A
O2367     Mg2381   2.211       .  S
O2368     Mg2398   2.354       .  S
C2369      O2382   1.281       .  A
C2369      O2374   1.253       .  A
C2370      O2397   1.264       .  A
C2370      C3329   1.456       .  S
Mg2371     O2378   2.149       .  S
Mg2371     O2379   2.204       .  S
Mg2371     O2372   2.426       .  S
Mg2371     O2373   2.299       .  S
Mg2371     O2400   2.317       .  S
O2373      C2377   1.264       .  A
O2374     Mg2381   2.198       .  S
O2375      C2394   1.275       .  A
O2376      C2396   1.266       .  A
O2376     Mg2392   2.262       .  S
O2378     Mg2392   2.141       .  S
O2378      C2389   1.239       .  S
O2379     Mg2398   2.237       .  S
O2380     Mg2392   2.336       .  S
Mg2381     O2397   2.281       .  S
O2382     Mg2398   2.419       .  S
H2383      C2388   1.082       .  S
O2384     Mg2392   2.086       .  S
O2384      C2387   1.227       .  S
H2385      C2387   1.082       .  S
H2386      C2389   1.081       .  S
O2391     Mg2398   2.327       .  S
C2394      O2399   1.287       .  A
O2395      C2396   1.273       .  A
C2396      C3270   1.457       .  S
O2401     Mg2403   2.237   1_565  S
O2401     Mg2409   2.204       .  S
O2401      C2436   1.245       .  S
C2402      O2415   1.239       .  S
C2402      O2439   1.273   1_565  A
C2402      H2441   1.081       .  S
Mg2403     O2432   2.113       .  S
Mg2403     O2447   2.355       .  S
Mg2403     O2443   2.418       .  S
Mg2403     O2414   2.327       .  S
O2404     Mg2446   2.145   1_565  S
O2404     Mg2429   2.086       .  S
O2404      C2425   1.227       .  S
O2405      C2436   1.281       .  A
O2405     Mg2429   2.336       .  S
C2406      O2408   1.264       .  A
C2406      O2420   1.251       .  A
C2406      C2924   1.457       .  S
O2407      C2435   1.264       .  A
O2407     Mg2409   2.299   1_545  S
O2408     Mg2440   2.282       .  S
Mg2409     O2415   2.149       .  S
Mg2409     O2423   2.317       .  S
Mg2409     O2411   2.424       .  S
C2410      O2448   1.275       .  A
C2410      O2416   1.287       .  A
C2410      C2458   1.470       .  S
O2411      C2418   1.296       .  A
H2412      C2425   1.082       .  S
C2413      O2427   1.240       .  S
C2413      O2428   1.263       .  A
C2413      H2438   1.082       .  S
O2414      C2437   1.275       .  A
O2415     Mg2429   2.141       .  S
O2416     Mg2446   2.367       .  S
C2417      O2430   1.273       .  A
C2417      O2422   1.266       .  A
C2417      C2946   1.457       .  S
C2418      O2445   1.253       .  A
Mg2419     O2426   2.138       .  S
Mg2419     O2427   2.209       .  S
Mg2419     O2420   2.212       .  S
Mg2419     O2421   2.263       .  S
Mg2419     O2448   2.252       .  S
O2421      C2425   1.257   1_545  A
O2422     Mg2429   2.261       .  S
O2423      C2442   1.288       .  A
O2424      C2444   1.253       .  A
O2424     Mg2440   2.199       .  S
O2426     Mg2440   2.211       .  S
O2426      C2437   1.239       .  S
O2427     Mg2446   2.046       .  S
O2428     Mg2440   2.228       .  S
Mg2429     O2445   2.169       .  S
O2430     Mg2446   2.233   1_565  S
H2431      C2436   1.082       .  S
O2432     Mg2440   2.140       .  S
O2432      C2435   1.230       .  S
H2433      C2435   1.081       .  S
H2434      C2437   1.081       .  S
O2439     Mg2446   2.312       .  S
C2442      O2447   1.282   1_565  A
O2443      C2444   1.281       .  A
O2449     Mg2451   2.236       .  S
O2449     Mg2457   2.204       .  S
O2449      C2484   1.245       .  S
C2450      O2463   1.239       .  S
C2450      O2487   1.273       .  A
C2450      H2489   1.081       .  S
Mg2451     O2480   2.114       .  S
Mg2451     O2495   2.351       .  S
Mg2451     O2491   2.416       .  S
Mg2451     O2462   2.326       .  S
O2452     Mg2494   2.145       .  S
O2452     Mg2477   2.086       .  S
O2452      C2473   1.227       .  S
O2453      C2484   1.281       .  A
O2453     Mg2477   2.336       .  S
C2454      O2456   1.264       .  A
C2454      O2468   1.251       .  A
C2454      C2972   1.457       .  S
O2455      C2483   1.264       .  A
O2455     Mg2457   2.299       .  S
O2456     Mg2488   2.281   1_565  S
Mg2457     O2463   2.149       .  S
Mg2457     O2471   2.316       .  S
Mg2457     O2459   2.425       .  S
C2458      O2496   1.275       .  A
C2458      O2464   1.287       .  A
O2459      C2466   1.295       .  A
H2460      C2473   1.082       .  S
C2461      O2475   1.240       .  S
C2461      O2476   1.263       .  A
C2461      H2486   1.082       .  S
O2462      C2485   1.275       .  A
O2463     Mg2477   2.140       .  S
O2464     Mg2494   2.369       .  S
C2465      O2478   1.273       .  A
C2465      O2470   1.266       .  A
C2465      C2898   1.457       .  S
C2466      O2493   1.253       .  A
C2466      C3426   1.487       .  S
Mg2467     O2474   2.136       .  S
Mg2467     O2475   2.208       .  S
Mg2467     O2468   2.212   1_545  S
Mg2467     O2469   2.263       .  S
Mg2467     O2496   2.251       .  S
O2469      C2473   1.257       .  A
O2470     Mg2477   2.261       .  S
O2471      C2490   1.288       .  A
O2472      C2492   1.253       .  A
O2472     Mg2488   2.196       .  S
O2474     Mg2488   2.211       .  S
O2474      C2485   1.239       .  S
O2475     Mg2494   2.045       .  S
O2476     Mg2488   2.227       .  S
Mg2477     O2493   2.169       .  S
O2478     Mg2494   2.233       .  S
H2479      C2484   1.082       .  S
O2480     Mg2488   2.140       .  S
O2480      C2483   1.230       .  S
H2481      C2483   1.081       .  S
H2482      C2485   1.081       .  S
O2487     Mg2494   2.313       .  S
C2490      O2495   1.281       .  A
C2490      C2801   1.481       .  S
O2491      C2492   1.280       .  A
O2497     Mg2499   2.235       .  S
O2497     Mg2505   2.204       .  S
O2497      C2532   1.245       .  S
C2498      O2511   1.239       .  S
C2498      O2535   1.273       .  A
C2498      H2537   1.081       .  S
Mg2499     O2528   2.114   1_556  S
Mg2499     O2543   2.353       .  S
Mg2499     O2539   2.415   1_556  S
Mg2499     O2510   2.327       .  S
O2500     Mg2542   2.145       .  S
O2500     Mg2525   2.085       .  S
O2500      C2521   1.227       .  S
O2501      C2532   1.281       .  A
O2501     Mg2525   2.336       .  S
C2502      O2504   1.264       .  A
C2502      O2516   1.251       .  A
O2503      C2531   1.264   1_556  A
O2503     Mg2505   2.299       .  S
O2504     Mg2536   2.282       .  S
Mg2505     O2511   2.150       .  S
Mg2505     O2519   2.318       .  S
Mg2505     O2507   2.423       .  S
C2506      O2544   1.275       .  A
C2506      O2512   1.287   1_554  A
C2506      C2554   1.470       .  S
O2507      C2514   1.295       .  A
H2508      C2521   1.082       .  S
C2509      O2523   1.240       .  S
C2509      O2524   1.263       .  A
C2509      H2534   1.082       .  S
O2510      C2533   1.275   1_556  A
O2511     Mg2525   2.141       .  S
O2512     Mg2542   2.369       .  S
C2513      O2526   1.272       .  A
C2513      O2518   1.266       .  A
C2514      O2541   1.253       .  A
Mg2515     O2522   2.137       .  S
Mg2515     O2523   2.208       .  S
Mg2515     O2516   2.211       .  S
Mg2515     O2517   2.263   1_554  S
Mg2515     O2544   2.252       .  S
O2517      C2521   1.257       .  A
O2518     Mg2525   2.262       .  S
O2519      C2538   1.288       .  A
O2520      C2540   1.253       .  A
O2520     Mg2536   2.196       .  S
O2522     Mg2536   2.211       .  S
O2522      C2533   1.239       .  S
O2523     Mg2542   2.044   1_554  S
O2524     Mg2536   2.227       .  S
Mg2525     O2541   2.168       .  S
O2526     Mg2542   2.231       .  S
H2527      C2532   1.082       .  S
O2528     Mg2536   2.140       .  S
O2528      C2531   1.230       .  S
H2529      C2531   1.081       .  S
H2530      C2533   1.081       .  S
O2535     Mg2542   2.313       .  S
C2538      O2543   1.281       .  A
O2539      C2540   1.280       .  A
O2545     Mg2547   2.237       .  S
O2545     Mg2553   2.204       .  S
O2545      C2580   1.245       .  S
C2546      O2559   1.239       .  S
C2546      O2583   1.273       .  A
C2546      H2585   1.081       .  S
Mg2547     O2576   2.113       .  S
Mg2547     O2591   2.355       .  S
Mg2547     O2587   2.418   1_554  S
Mg2547     O2558   2.327       .  S
O2548     Mg2590   2.145       .  S
O2548     Mg2573   2.085       .  S
O2548      C2569   1.227       .  S
O2549      C2580   1.281       .  A
O2549     Mg2573   2.336       .  S
C2550      O2552   1.264       .  A
C2550      O2564   1.251       .  A
O2551      C2579   1.264       .  A
O2551     Mg2553   2.299       .  S
O2552     Mg2584   2.282       .  S
Mg2553     O2559   2.150       .  S
Mg2553     O2567   2.318       .  S
Mg2553     O2555   2.426       .  S
C2554      O2592   1.275       .  A
C2554      O2560   1.287       .  A
O2555      C2562   1.296       .  A
H2556      C2569   1.082       .  S
C2557      O2571   1.240   1_556  S
C2557      O2572   1.263       .  A
C2557      H2582   1.082       .  S
O2558      C2581   1.275       .  A
O2559     Mg2573   2.141       .  S
O2560     Mg2590   2.369       .  S
C2561      O2574   1.272       .  A
C2561      O2566   1.266       .  A
C2562      O2589   1.253       .  A
Mg2563     O2570   2.138       .  S
Mg2563     O2571   2.209       .  S
Mg2563     O2564   2.211   1_554  S
Mg2563     O2565   2.263       .  S
Mg2563     O2592   2.252       .  S
O2565      C2569   1.257       .  A
O2566     Mg2573   2.262       .  S
O2567      C2586   1.288       .  A
O2568      C2588   1.253       .  A
O2568     Mg2584   2.199       .  S
O2570     Mg2584   2.211   1_554  S
O2570      C2581   1.239       .  S
O2571     Mg2590   2.045       .  S
O2572     Mg2584   2.227       .  S
Mg2573     O2589   2.168       .  S
O2574     Mg2590   2.231       .  S
H2575      C2580   1.082       .  S
O2576     Mg2584   2.140   1_554  S
O2576      C2579   1.230       .  S
H2577      C2579   1.081   1_556  S
H2578      C2581   1.081       .  S
O2583     Mg2590   2.313       .  S
C2586      O2591   1.282       .  A
O2587      C2588   1.281       .  A
O2593     Mg2595   2.043       .  S
O2593     Mg2601   2.207       .  S
O2593      C2628   1.240       .  S
C2594      O2607   1.239       .  S
C2594      O2631   1.275       .  A
C2594      H2633   1.081       .  S
Mg2595     O2624   2.145       .  S
Mg2595     O2639   2.370       .  S
Mg2595     O2635   2.229       .  S
Mg2595     O2606   2.314       .  S
O2596     Mg2638   2.114       .  S
O2596     Mg2621   2.141       .  S
O2596      C2617   1.230       .  S
O2597      C2628   1.263       .  A
O2597     Mg2621   2.227       .  S
C2598      O2600   1.253       .  A
C2598      O2612   1.295       .  A
C2598      C2694   1.486       .  S
O2599      C2627   1.257       .  A
O2599     Mg2601   2.263       .  S
O2600     Mg2632   2.169       .  S
Mg2601     O2607   2.137       .  S
Mg2601     O2615   2.253       .  S
Mg2601     O2603   2.210   1_545  S
C2602      O2640   1.288       .  A
C2602      O2608   1.282       .  A
C2602      C3692   1.483       .  S
O2603      C2610   1.251       .  A
H2604      C2617   1.081       .  S
C2605      O2619   1.245       .  S
C2605      O2620   1.281       .  A
C2605      H2630   1.082       .  S
O2606      C2629   1.274       .  A
O2607     Mg2621   2.211       .  S
O2608     Mg2638   2.355       .  S
C2609      O2622   1.280       .  A
C2609      O2614   1.253       .  A
C2610      O2637   1.264       .  A
C2610      C3617   1.457       .  S
Mg2611     O2618   2.152       .  S
Mg2611     O2619   2.204       .  S
Mg2611     O2612   2.424       .  S
Mg2611     O2613   2.299       .  S
Mg2611     O2640   2.319       .  S
O2613      C2617   1.264       .  A
O2614     Mg2621   2.196       .  S
O2615      C2634   1.275       .  A
O2616      C2636   1.266       .  A
O2616     Mg2632   2.263       .  S
O2618     Mg2632   2.140       .  S
O2618      C2629   1.239       .  S
O2619     Mg2638   2.236       .  S
O2620     Mg2632   2.337       .  S
Mg2621     O2637   2.282   1_545  S
O2622     Mg2638   2.417       .  S
H2623      C2628   1.082       .  S
O2624     Mg2632   2.086       .  S
O2624      C2627   1.227       .  S
H2625      C2627   1.082       .  S
H2626      C2629   1.081       .  S
O2631     Mg2638   2.327       .  S
C2634      O2639   1.287       .  A
C2634      C2682   1.471       .  S
O2635      C2636   1.272       .  A
C2636      C3558   1.457       .  S
O2641     Mg2643   2.044       .  S
O2641     Mg2649   2.208       .  S
O2641      C2676   1.240       .  S
C2642      O2655   1.239       .  S
C2642      O2679   1.275       .  A
C2642      H2681   1.081       .  S
Mg2643     O2672   2.145   1_545  S
Mg2643     O2687   2.370       .  S
Mg2643     O2683   2.229   1_545  S
Mg2643     O2654   2.313       .  S
O2644     Mg2686   2.113       .  S
O2644     Mg2669   2.139       .  S
O2644      C2665   1.230       .  S
O2645      C2676   1.263       .  A
O2645     Mg2669   2.227       .  S
C2646      O2648   1.253       .  A
C2646      O2660   1.295       .  A
C2646      C3990   1.486       .  S
O2647      C2675   1.257   1_545  A
O2647     Mg2649   2.263       .  S
O2648     Mg2680   2.169       .  S
Mg2649     O2655   2.137       .  S
Mg2649     O2663   2.253       .  S
Mg2649     O2651   2.212       .  S
C2650      O2688   1.288       .  A
C2650      O2656   1.281   1_565  A
C2650      C3500   1.482       .  S
O2651      C2658   1.251       .  A
H2652      C2665   1.081       .  S
C2653      O2667   1.245       .  S
C2653      O2668   1.281       .  A
C2653      H2678   1.082       .  S
O2654      C2677   1.273   1_545  A
O2655     Mg2669   2.211       .  S
O2656     Mg2686   2.351       .  S
C2657      O2670   1.280       .  A
C2657      O2662   1.253       .  A
C2657      C3786   1.482       .  S
C2658      O2685   1.264       .  A
C2658      C3569   1.456       .  S
Mg2659     O2666   2.150       .  S
Mg2659     O2667   2.204       .  S
Mg2659     O2660   2.424       .  S
Mg2659     O2661   2.298   1_565  S
Mg2659     O2688   2.318       .  S
O2661      C2665   1.264       .  A
O2662     Mg2669   2.196       .  S
O2663      C2682   1.275       .  A
O2664      C2684   1.266       .  A
O2664     Mg2680   2.263       .  S
O2666     Mg2680   2.140       .  S
O2666      C2677   1.239       .  S
O2667     Mg2686   2.236   1_565  S
O2668     Mg2680   2.336       .  S
Mg2669     O2685   2.280       .  S
O2670     Mg2686   2.416       .  S
H2671      C2676   1.082       .  S
O2672     Mg2680   2.086       .  S
O2672      C2675   1.227       .  S
H2673      C2675   1.082       .  S
H2674      C2677   1.081       .  S
O2679     Mg2686   2.327       .  S
C2682      O2687   1.287       .  A
O2683      C2684   1.272       .  A
C2684      C3606   1.456       .  S
O2689     Mg2691   2.045       .  S
O2689     Mg2697   2.208       .  S
O2689      C2724   1.240       .  S
C2690      O2703   1.239       .  S
C2690      O2727   1.276       .  A
C2690      H2729   1.081       .  S
Mg2691     O2720   2.146       .  S
Mg2691     O2735   2.369       .  S
Mg2691     O2731   2.231       .  S
Mg2691     O2702   2.312       .  S
O2692     Mg2734   2.114       .  S
O2692     Mg2717   2.140       .  S
O2692      C2713   1.230       .  S
O2693      C2724   1.263       .  A
O2693     Mg2717   2.227       .  S
C2694      O2696   1.253       .  A
C2694      O2708   1.295       .  A
O2695      C2723   1.257       .  A
O2695     Mg2697   2.263       .  S
O2696     Mg2728   2.170       .  S
Mg2697     O2703   2.139       .  S
Mg2697     O2711   2.253       .  S
Mg2697     O2699   2.212       .  S
C2698      O2736   1.288       .  A
C2698      O2704   1.281       .  A
C2698      C3596   1.482       .  S
O2699      C2706   1.251       .  A
H2700      C2713   1.081       .  S
C2701      O2715   1.245       .  S
C2701      O2716   1.281       .  A
C2701      H2726   1.082       .  S
O2702      C2725   1.273       .  A
O2703     Mg2717   2.211       .  S
O2704     Mg2734   2.352       .  S
C2705      O2718   1.280       .  A
C2705      O2710   1.253       .  A
C2705      C4458   1.482       .  S
C2706      O2733   1.264       .  A
C2706      C3713   1.457       .  S
Mg2707     O2714   2.149       .  S
Mg2707     O2715   2.204       .  S
Mg2707     O2708   2.424       .  S
Mg2707     O2709   2.299       .  S
Mg2707     O2736   2.318       .  S
O2709      C2713   1.264       .  A
O2710     Mg2717   2.198       .  S
O2711      C2730   1.275       .  A
O2712      C2732   1.266       .  A
O2712     Mg2728   2.261       .  S
O2714     Mg2728   2.140       .  S
O2714      C2725   1.239       .  S
O2715     Mg2734   2.235       .  S
O2716     Mg2728   2.336       .  S
Mg2717     O2733   2.281       .  S
O2718     Mg2734   2.414       .  S
H2719      C2724   1.082       .  S
O2720     Mg2728   2.087       .  S
O2720      C2723   1.227       .  S
H2721      C2723   1.082       .  S
H2722      C2725   1.081       .  S
O2727     Mg2734   2.327       .  S
C2730      O2735   1.287       .  A
C2730      C2778   1.471       .  S
O2731      C2732   1.272       .  A
C2732      C3654   1.456       .  S
O2737     Mg2739   2.045       .  S
O2737     Mg2745   2.209       .  S
O2737      C2772   1.240       .  S
C2738      O2751   1.239       .  S
C2738      O2775   1.275       .  A
C2738      H2777   1.081       .  S
Mg2739     O2768   2.145       .  S
Mg2739     O2783   2.370       .  S
Mg2739     O2779   2.233       .  S
Mg2739     O2750   2.314       .  S
O2740     Mg2782   2.114       .  S
O2740     Mg2765   2.141       .  S
O2740      C2761   1.230       .  S
O2741      C2772   1.263       .  A
O2741     Mg2765   2.227       .  S
C2742      O2744   1.253       .  A
C2742      O2756   1.295       .  A
O2743      C2771   1.257       .  A
O2743     Mg2745   2.263       .  S
O2744     Mg2776   2.168       .  S
Mg2745     O2751   2.138       .  S
Mg2745     O2759   2.252       .  S
Mg2745     O2747   2.210       .  S
C2746      O2784   1.288       .  A
C2746      O2752   1.282       .  A
C2746      C4364   1.483       .  S
O2747      C2754   1.251       .  A
H2748      C2761   1.081       .  S
C2749      O2763   1.245       .  S
C2749      O2764   1.281       .  A
C2749      H2774   1.082       .  S
O2750      C2773   1.274       .  A
O2751     Mg2765   2.211       .  S
O2752     Mg2782   2.357       .  S
C2753      O2766   1.281       .  A
C2753      O2758   1.253       .  A
C2753      C4554   1.482       .  S
C2754      O2781   1.264       .  A
C2754      C3665   1.457       .  S
Mg2755     O2762   2.151       .  S
Mg2755     O2763   2.204       .  S
Mg2755     O2756   2.424       .  S
Mg2755     O2757   2.299       .  S
Mg2755     O2784   2.318       .  S
O2757      C2761   1.264       .  A
O2758     Mg2765   2.197       .  S
O2759      C2778   1.275       .  A
O2760      C2780   1.266       .  A
O2760     Mg2776   2.261       .  S
O2762     Mg2776   2.141       .  S
O2762      C2773   1.239       .  S
O2763     Mg2782   2.236       .  S
O2764     Mg2776   2.336       .  S
Mg2765     O2781   2.282       .  S
O2766     Mg2782   2.418       .  S
H2767      C2772   1.082       .  S
O2768     Mg2776   2.086       .  S
O2768      C2771   1.227       .  S
H2769      C2771   1.082       .  S
H2770      C2773   1.081       .  S
O2775     Mg2782   2.327       .  S
C2778      O2783   1.287       .  A
O2779      C2780   1.273       .  A
C2780      C3702   1.457       .  S
O2785     Mg2787   2.044       .  S
O2785     Mg2793   2.208       .  S
O2785      C2820   1.240   1_554  S
C2786      O2799   1.239       .  S
C2786      O2823   1.275       .  A
C2786      H2825   1.081       .  S
Mg2787     O2816   2.145       .  S
Mg2787     O2831   2.369       .  S
Mg2787     O2827   2.231       .  S
Mg2787     O2798   2.313       .  S
O2788     Mg2830   2.114       .  S
O2788     Mg2813   2.140   1_554  S
O2788      C2809   1.230       .  S
O2789      C2820   1.263       .  A
O2789     Mg2813   2.227       .  S
C2790      O2792   1.253       .  A
C2790      O2804   1.295       .  A
C2790      C2982   1.486       .  S
O2791      C2819   1.257       .  A
O2791     Mg2793   2.263       .  S
O2792     Mg2824   2.168       .  S
Mg2793     O2799   2.138       .  S
Mg2793     O2807   2.253       .  S
Mg2793     O2795   2.211   1_554  S
C2794      O2832   1.288       .  A
C2794      O2800   1.281       .  A
C2794      C3884   1.482       .  S
O2795      C2802   1.251       .  A
H2796      C2809   1.081   1_556  S
C2797      O2811   1.245       .  S
C2797      O2812   1.281       .  A
C2797      H2822   1.082       .  S
O2798      C2821   1.273       .  A
O2799     Mg2813   2.211   1_554  S
O2800     Mg2830   2.353       .  S
C2801      O2814   1.280       .  A
C2801      O2806   1.253       .  A
C2802      O2829   1.264       .  A
C2802      C3425   1.457       .  S
Mg2803     O2810   2.151       .  S
Mg2803     O2811   2.204       .  S
Mg2803     O2804   2.422       .  S
Mg2803     O2805   2.298       .  S
Mg2803     O2832   2.318       .  S
O2805      C2809   1.264       .  A
O2806     Mg2813   2.197       .  S
O2807      C2826   1.275       .  A
O2808      C2828   1.266       .  A
O2808     Mg2824   2.262       .  S
O2810     Mg2824   2.141       .  S
O2810      C2821   1.239       .  S
O2811     Mg2830   2.235       .  S
O2812     Mg2824   2.336       .  S
Mg2813     O2829   2.282       .  S
O2814     Mg2830   2.414   1_556  S
H2815      C2820   1.082       .  S
O2816     Mg2824   2.086       .  S
O2816      C2819   1.227       .  S
H2817      C2819   1.082       .  S
H2818      C2821   1.081       .  S
O2823     Mg2830   2.327       .  S
C2826      O2831   1.287       .  A
C2826      C2874   1.470       .  S
O2827      C2828   1.272       .  A
C2828      C3366   1.457       .  S
O2833     Mg2835   2.044   1_554  S
O2833     Mg2841   2.208       .  S
O2833      C2868   1.240       .  S
C2834      O2847   1.239       .  S
C2834      O2871   1.275   1_554  A
C2834      H2873   1.081       .  S
Mg2835     O2864   2.146       .  S
Mg2835     O2879   2.369       .  S
Mg2835     O2875   2.230       .  S
Mg2835     O2846   2.313       .  S
O2836     Mg2878   2.114   1_554  S
O2836     Mg2861   2.140       .  S
O2836      C2857   1.230       .  S
O2837      C2868   1.263       .  A
O2837     Mg2861   2.227       .  S
C2838      O2840   1.253       .  A
C2838      O2852   1.296       .  A
C2838      C4278   1.487       .  S
O2839      C2867   1.257       .  A
O2839     Mg2841   2.263   1_556  S
O2840     Mg2872   2.170       .  S
Mg2841     O2847   2.137       .  S
Mg2841     O2855   2.253       .  S
Mg2841     O2843   2.212       .  S
C2842      O2880   1.288       .  A
C2842      O2848   1.281       .  A
C2842      C3788   1.482       .  S
O2843      C2850   1.251       .  A
H2844      C2857   1.081       .  S
C2845      O2859   1.245       .  S
C2845      O2860   1.281       .  A
C2845      H2870   1.082       .  S
O2846      C2869   1.273       .  A
O2847     Mg2861   2.211       .  S
O2848     Mg2878   2.351       .  S
C2849      O2862   1.280       .  A
C2849      O2854   1.253       .  A
C2849      C3210   1.482       .  S
C2850      O2877   1.264       .  A
C2850      C3377   1.457       .  S
Mg2851     O2858   2.150       .  S
Mg2851     O2859   2.204       .  S
Mg2851     O2852   2.425       .  S
Mg2851     O2853   2.298       .  S
Mg2851     O2880   2.318       .  S
O2853      C2857   1.264   1_556  A
O2854     Mg2861   2.196       .  S
O2855      C2874   1.275       .  A
O2856      C2876   1.266       .  A
O2856     Mg2872   2.261       .  S
O2858     Mg2872   2.140       .  S
O2858      C2869   1.239       .  S
O2859     Mg2878   2.236       .  S
O2860     Mg2872   2.336       .  S
Mg2861     O2877   2.281       .  S
O2862     Mg2878   2.416   1_554  S
H2863      C2868   1.082       .  S
O2864     Mg2872   2.087       .  S
O2864      C2867   1.227       .  S
H2865      C2867   1.082       .  S
H2866      C2869   1.081       .  S
O2871     Mg2878   2.326       .  S
C2874      O2879   1.287   1_554  A
O2875      C2876   1.272       .  A
C2876      C3414   1.456       .  S
O2881     Mg2883   2.045       .  S
O2881     Mg2889   2.210       .  S
O2881      C2916   1.240       .  S
C2882      O2895   1.239       .  S
C2882      O2919   1.275       .  A
C2882      H2921   1.081       .  S
Mg2883     O2912   2.144       .  S
Mg2883     O2927   2.368       .  S
Mg2883     O2923   2.232       .  S
Mg2883     O2894   2.313       .  S
O2884     Mg2926   2.114       .  S
O2884     Mg2909   2.139       .  S
O2884      C2905   1.230       .  S
O2885      C2916   1.263       .  A
O2885     Mg2909   2.227       .  S
C2886      O2888   1.253       .  A
C2886      O2900   1.295       .  A
O2887      C2915   1.257       .  A
O2887     Mg2889   2.262       .  S
O2888     Mg2920   2.167       .  S
Mg2889     O2895   2.136       .  S
Mg2889     O2903   2.249       .  S
Mg2889     O2891   2.210       .  S
C2890      O2928   1.288       .  A
C2890      O2896   1.281       .  A
C2890      C4508   1.482       .  S
O2891      C2898   1.251       .  A
H2892      C2905   1.081       .  S
C2893      O2907   1.245       .  S
C2893      O2908   1.281       .  A
C2893      H2918   1.082       .  S
O2894      C2917   1.273       .  A
O2895     Mg2909   2.211       .  S
O2896     Mg2926   2.351       .  S
C2897      O2910   1.280       .  A
C2897      O2902   1.253       .  A
C2897      C3450   1.481       .  S
C2898      O2925   1.264       .  A
Mg2899     O2906   2.150       .  S
Mg2899     O2907   2.204       .  S
Mg2899     O2900   2.423       .  S
Mg2899     O2901   2.298       .  S
Mg2899     O2928   2.317       .  S
O2901      C2905   1.264       .  A
O2902     Mg2909   2.197       .  S
O2903      C2922   1.274       .  A
O2904      C2924   1.266       .  A
O2904     Mg2920   2.262       .  S
O2906     Mg2920   2.140       .  S
O2906      C2917   1.239       .  S
O2907     Mg2926   2.235       .  S
O2908     Mg2920   2.336       .  S
Mg2909     O2925   2.282       .  S
O2910     Mg2926   2.415       .  S
H2911      C2916   1.082       .  S
O2912     Mg2920   2.085       .  S
O2912      C2915   1.227       .  S
H2913      C2915   1.082       .  S
H2914      C2917   1.081       .  S
O2919     Mg2926   2.326       .  S
C2922      O2927   1.287       .  A
C2922      C2970   1.469       .  S
O2923      C2924   1.273       .  A
O2929     Mg2931   2.045       .  S
O2929     Mg2937   2.209       .  S
O2929      C2964   1.240       .  S
C2930      O2943   1.239       .  S
C2930      O2967   1.275       .  A
C2930      H2969   1.081       .  S
Mg2931     O2960   2.144       .  S
Mg2931     O2975   2.368   1_565  S
Mg2931     O2971   2.231       .  S
Mg2931     O2942   2.313       .  S
O2932     Mg2974   2.113       .  S
O2932     Mg2957   2.140       .  S
O2932      C2953   1.230       .  S
O2933      C2964   1.263       .  A
O2933     Mg2957   2.227       .  S
C2934      O2936   1.253       .  A
C2934      O2948   1.296       .  A
O2935      C2963   1.257       .  A
O2935     Mg2937   2.262       .  S
O2936     Mg2968   2.168       .  S
Mg2937     O2943   2.136       .  S
Mg2937     O2951   2.250   1_565  S
Mg2937     O2939   2.210       .  S
C2938      O2976   1.288       .  A
C2938      O2944   1.282       .  A
O2939      C2946   1.251       .  A
H2940      C2953   1.081       .  S
C2941      O2955   1.245       .  S
C2941      O2956   1.281       .  A
C2941      H2966   1.082       .  S
O2942      C2965   1.273       .  A
O2943     Mg2957   2.211       .  S
O2944     Mg2974   2.355       .  S
C2945      O2958   1.281       .  A
C2945      O2950   1.253       .  A
C2946      O2973   1.264       .  A
Mg2947     O2954   2.150       .  S
Mg2947     O2955   2.204       .  S
Mg2947     O2948   2.425       .  S
Mg2947     O2949   2.299       .  S
Mg2947     O2976   2.317       .  S
O2949      C2953   1.264       .  A
O2950     Mg2957   2.197       .  S
O2951      C2970   1.275       .  A
O2952      C2972   1.266       .  A
O2952     Mg2968   2.263       .  S
O2954     Mg2968   2.140       .  S
O2954      C2965   1.239       .  S
O2955     Mg2974   2.237       .  S
O2956     Mg2968   2.336       .  S
Mg2957     O2973   2.282       .  S
O2958     Mg2974   2.419       .  S
H2959      C2964   1.082       .  S
O2960     Mg2968   2.085       .  S
O2960      C2963   1.227       .  S
H2961      C2963   1.082       .  S
H2962      C2965   1.081       .  S
O2967     Mg2974   2.327       .  S
C2970      O2975   1.287       .  A
O2971      C2972   1.272       .  A
O2977     Mg2979   2.045       .  S
O2977     Mg2985   2.209       .  S
O2977      C3012   1.240       .  S
C2978      O2991   1.239       .  S
C2978      O3015   1.275       .  A
C2978      H3017   1.081       .  S
Mg2979     O3008   2.144       .  S
Mg2979     O3023   2.370       .  S
Mg2979     O3019   2.231       .  S
Mg2979     O2990   2.313       .  S
O2980     Mg3022   2.113       .  S
O2980     Mg3005   2.140       .  S
O2980      C3001   1.230       .  S
O2981      C3012   1.263       .  A
O2981     Mg3005   2.227       .  S
C2982      O2984   1.253       .  A
C2982      O2996   1.295       .  A
O2983      C3011   1.257       .  A
O2983     Mg2985   2.262       .  S
O2984     Mg3016   2.167       .  S
Mg2985     O2991   2.138       .  S
Mg2985     O2999   2.252       .  S
Mg2985     O2987   2.210       .  S
C2986      O3024   1.288       .  A
C2986      O2992   1.282       .  A
C2986      C3404   1.483       .  S
O2987      C2994   1.251       .  A
H2988      C3001   1.081       .  S
C2989      O3003   1.245       .  S
C2989      O3004   1.281       .  A
C2989      H3014   1.082       .  S
O2990      C3013   1.273       .  A
O2991     Mg3005   2.211       .  S
O2992     Mg3022   2.356       .  S
C2993      O3006   1.281       .  A
C2993      O2998   1.253       .  A
C2994      O3021   1.264       .  A
C2994      C3905   1.456       .  S
Mg2995     O3002   2.151       .  S
Mg2995     O3003   2.203       .  S
Mg2995     O2996   2.424       .  S
Mg2995     O2997   2.299       .  S
Mg2995     O3024   2.318       .  S
O2997      C3001   1.264       .  A
O2998     Mg3005   2.198       .  S
O2999      C3018   1.275       .  A
O3000      C3020   1.266       .  A
O3000     Mg3016   2.263       .  S
O3002     Mg3016   2.140       .  S
O3002      C3013   1.239       .  S
O3003     Mg3022   2.236       .  S
O3004     Mg3016   2.336       .  S
Mg3005     O3021   2.281       .  S
O3006     Mg3022   2.418       .  S
H3007      C3012   1.082       .  S
O3008     Mg3016   2.085       .  S
O3008      C3011   1.227       .  S
H3009      C3011   1.082       .  S
H3010      C3013   1.081       .  S
O3015     Mg3022   2.327       .  S
C3018      O3023   1.287       .  A
C3018      C3066   1.471       .  S
O3019      C3020   1.273       .  A
C3020      C3846   1.457       .  S
O3025     Mg3027   2.045       .  S
O3025     Mg3033   2.209       .  S
O3025      C3060   1.240       .  S
C3026      O3039   1.239       .  S
C3026      O3063   1.275       .  A
C3026      H3065   1.081       .  S
Mg3027     O3056   2.144       .  S
Mg3027     O3071   2.370       .  S
Mg3027     O3067   2.231       .  S
Mg3027     O3038   2.314       .  S
O3028     Mg3070   2.114       .  S
O3028     Mg3053   2.140       .  S
O3028      C3049   1.230       .  S
O3029      C3060   1.263       .  A
O3029     Mg3053   2.227       .  S
C3030      O3032   1.253       .  A
C3030      O3044   1.295       .  A
O3031      C3059   1.257       .  A
O3031     Mg3033   2.262       .  S
O3032     Mg3064   2.167       .  S
Mg3033     O3039   2.138       .  S
Mg3033     O3047   2.253       .  S
Mg3033     O3035   2.209       .  S
C3034      O3072   1.288       .  A
C3034      O3040   1.282       .  A
C3034      C4172   1.483       .  S
O3035      C3042   1.251       .  A
H3036      C3049   1.081       .  S
C3037      O3051   1.245       .  S
C3037      O3052   1.281       .  A
C3037      H3062   1.082       .  S
O3038      C3061   1.273       .  A
O3039     Mg3053   2.211       .  S
O3040     Mg3070   2.356       .  S
C3041      O3054   1.281       .  A
C3041      O3046   1.253       .  A
C3041      C4362   1.483       .  S
C3042      O3069   1.264       .  A
C3042      C3857   1.457       .  S
Mg3043     O3050   2.152       .  S
Mg3043     O3051   2.204       .  S
Mg3043     O3044   2.424       .  S
Mg3043     O3045   2.299       .  S
Mg3043     O3072   2.319       .  S
O3045      C3049   1.264       .  A
O3046     Mg3053   2.199       .  S
O3047      C3066   1.275       .  A
O3048      C3068   1.266       .  A
O3048     Mg3064   2.264       .  S
O3050     Mg3064   2.141       .  S
O3050      C3061   1.239       .  S
O3051     Mg3070   2.236       .  S
O3052     Mg3064   2.336       .  S
Mg3053     O3069   2.282       .  S
O3054     Mg3070   2.418       .  S
H3055      C3060   1.082       .  S
O3056     Mg3064   2.084       .  S
O3056      C3059   1.227       .  S
H3057      C3059   1.082       .  S
H3058      C3061   1.081       .  S
O3063     Mg3070   2.327       .  S
C3066      O3071   1.287       .  A
O3067      C3068   1.272       .  A
C3068      C3894   1.457       .  S
O3073     Mg3075   2.237       .  S
O3073     Mg3081   2.205       .  S
O3073      C3108   1.245       .  S
C3074      O3087   1.239       .  S
C3074      O3111   1.273       .  A
C3074      H3113   1.081       .  S
Mg3075     O3104   2.114       .  S
Mg3075     O3119   2.353       .  S
Mg3075     O3115   2.418       .  S
Mg3075     O3086   2.326       .  S
O3076     Mg3118   2.145       .  S
O3076     Mg3101   2.087       .  S
O3076      C3097   1.227       .  S
O3077      C3108   1.281       .  A
O3077     Mg3101   2.337       .  S
C3078      O3080   1.264       .  A
C3078      O3092   1.251       .  A
O3079      C3107   1.264       .  A
O3079     Mg3081   2.299       .  S
O3080     Mg3112   2.281       .  S
Mg3081     O3087   2.150       .  S
Mg3081     O3095   2.318       .  S
Mg3081     O3083   2.425       .  S
C3082      O3120   1.275       .  A
C3082      O3088   1.287       .  A
C3082      C3130   1.470       .  S
O3083      C3090   1.296       .  A
H3084      C3097   1.082       .  S
C3085      O3099   1.240       .  S
C3085      O3100   1.263       .  A
C3085      H3110   1.082       .  S
O3086      C3109   1.275       .  A
O3087     Mg3101   2.140       .  S
O3088     Mg3118   2.368       .  S
C3089      O3102   1.272       .  A
C3089      O3094   1.266       .  A
C3090      O3117   1.253       .  A
Mg3091     O3098   2.137       .  S
Mg3091     O3099   2.208       .  S
Mg3091     O3092   2.212       .  S
Mg3091     O3093   2.263       .  S
Mg3091     O3120   2.252       .  S
O3093      C3097   1.257       .  A
O3094     Mg3101   2.262       .  S
O3095      C3114   1.288       .  A
O3096      C3116   1.253       .  A
O3096     Mg3112   2.197       .  S
O3098     Mg3112   2.210       .  S
O3098      C3109   1.239       .  S
O3099     Mg3118   2.044       .  S
O3100     Mg3112   2.227       .  S
Mg3101     O3117   2.170       .  S
O3102     Mg3118   2.229       .  S
H3103      C3108   1.082       .  S
O3104     Mg3112   2.140       .  S
O3104      C3107   1.230       .  S
H3105      C3107   1.081       .  S
H3106      C3109   1.081       .  S
O3111     Mg3118   2.313       .  S
C3114      O3119   1.281       .  A
O3115      C3116   1.280       .  A
O3121     Mg3123   2.237       .  S
O3121     Mg3129   2.204       .  S
O3121      C3156   1.245       .  S
C3122      O3135   1.239       .  S
C3122      O3159   1.273       .  A
C3122      H3161   1.081       .  S
Mg3123     O3152   2.114       .  S
Mg3123     O3167   2.350       .  S
Mg3123     O3163   2.416       .  S
Mg3123     O3134   2.326       .  S
O3124     Mg3166   2.145       .  S
O3124     Mg3149   2.086       .  S
O3124      C3145   1.227       .  S
O3125      C3156   1.281       .  A
O3125     Mg3149   2.336       .  S
C3126      O3128   1.264       .  A
C3126      O3140   1.251       .  A
O3127      C3155   1.264       .  A
O3127     Mg3129   2.299       .  S
O3128     Mg3160   2.281       .  S
Mg3129     O3135   2.149       .  S
Mg3129     O3143   2.317       .  S
Mg3129     O3131   2.425       .  S
C3130      O3168   1.275       .  A
C3130      O3136   1.287       .  A
O3131      C3138   1.296       .  A
H3132      C3145   1.082       .  S
C3133      O3147   1.240       .  S
C3133      O3148   1.263       .  A
C3133      H3158   1.082       .  S
O3134      C3157   1.275       .  A
O3135     Mg3149   2.140       .  S
O3136     Mg3166   2.369       .  S
C3137      O3150   1.272       .  A
C3137      O3142   1.266       .  A
C3138      O3165   1.253       .  A
C3138      C4194   1.487       .  S
Mg3139     O3146   2.136       .  S
Mg3139     O3147   2.208       .  S
Mg3139     O3140   2.212       .  S
Mg3139     O3141   2.263       .  S
Mg3139     O3168   2.252       .  S
O3141      C3145   1.257       .  A
O3142     Mg3149   2.262       .  S
O3143      C3162   1.288       .  A
O3144      C3164   1.253       .  A
O3144     Mg3160   2.196       .  S
O3146     Mg3160   2.211       .  S
O3146      C3157   1.239       .  S
O3147     Mg3166   2.044       .  S
O3148     Mg3160   2.227       .  S
Mg3149     O3165   2.168       .  S
O3150     Mg3166   2.231       .  S
H3151      C3156   1.082       .  S
O3152     Mg3160   2.139       .  S
O3152      C3155   1.230       .  S
H3153      C3155   1.081       .  S
H3154      C3157   1.081       .  S
O3159     Mg3166   2.313       .  S
C3162      O3167   1.281       .  A
O3163      C3164   1.280       .  A
O3169     Mg3171   2.235       .  S
O3169     Mg3177   2.204       .  S
O3169      C3204   1.245       .  S
C3170      O3183   1.239       .  S
C3170      O3207   1.273       .  A
C3170      H3209   1.081       .  S
Mg3171     O3200   2.114       .  S
Mg3171     O3215   2.353       .  S
Mg3171     O3211   2.415       .  S
Mg3171     O3182   2.327       .  S
O3172     Mg3214   2.146       .  S
O3172     Mg3197   2.088       .  S
O3172      C3193   1.227       .  S
O3173      C3204   1.281       .  A
O3173     Mg3197   2.336       .  S
C3174      O3176   1.264       .  A
C3174      O3188   1.251       .  A
C3174      C4124   1.457       .  S
O3175      C3203   1.264       .  A
O3175     Mg3177   2.298       .  S
O3176     Mg3208   2.281   1_565  S
Mg3177     O3183   2.149       .  S
Mg3177     O3191   2.318       .  S
Mg3177     O3179   2.424       .  S
C3178      O3216   1.275       .  A
C3178      O3184   1.287       .  A
C3178      C3226   1.471       .  S
O3179      C3186   1.295       .  A
H3180      C3193   1.082       .  S
C3181      O3195   1.240       .  S
C3181      O3196   1.263       .  A
C3181      H3206   1.082       .  S
O3182      C3205   1.275       .  A
O3183     Mg3197   2.140       .  S
O3184     Mg3214   2.370       .  S
C3185      O3198   1.272       .  A
C3185      O3190   1.266       .  A
C3185      C4050   1.456       .  S
C3186      O3213   1.253       .  A
C3186      C3378   1.487       .  S
Mg3187     O3194   2.138       .  S
Mg3187     O3195   2.207       .  S
Mg3187     O3188   2.213   1_545  S
Mg3187     O3189   2.264       .  S
Mg3187     O3216   2.255       .  S
O3189      C3193   1.257       .  A
O3190     Mg3197   2.260       .  S
O3191      C3210   1.288       .  A
O3192      C3212   1.253       .  A
O3192     Mg3208   2.196       .  S
O3194     Mg3208   2.211       .  S
O3194      C3205   1.239       .  S
O3195     Mg3214   2.044       .  S
O3196     Mg3208   2.227       .  S
Mg3197     O3213   2.170       .  S
O3198     Mg3214   2.230       .  S
H3199      C3204   1.082       .  S
O3200     Mg3208   2.140       .  S
O3200      C3203   1.230       .  S
H3201      C3203   1.081       .  S
H3202      C3205   1.081       .  S
O3207     Mg3214   2.313       .  S
C3210      O3215   1.281       .  A
O3211      C3212   1.280       .  A
O3217     Mg3219   2.234   1_565  S
O3217     Mg3225   2.204       .  S
O3217      C3252   1.245       .  S
C3218      O3231   1.239       .  S
C3218      O3255   1.274   1_565  A
C3218      H3257   1.081       .  S
Mg3219     O3248   2.115       .  S
Mg3219     O3263   2.355       .  S
Mg3219     O3259   2.414       .  S
Mg3219     O3230   2.327       .  S
O3220     Mg3262   2.146   1_565  S
O3220     Mg3245   2.088       .  S
O3220      C3241   1.227       .  S
O3221      C3252   1.281       .  A
O3221     Mg3245   2.336       .  S
C3222      O3224   1.264       .  A
C3222      O3236   1.251       .  A
C3222      C4076   1.457       .  S
O3223      C3251   1.264       .  A
O3223     Mg3225   2.298   1_545  S
O3224     Mg3256   2.282       .  S
Mg3225     O3231   2.152       .  S
Mg3225     O3239   2.319       .  S
Mg3225     O3227   2.422       .  S
C3226      O3264   1.275       .  A
C3226      O3232   1.287       .  A
O3227      C3234   1.295       .  A
H3228      C3241   1.082       .  S
C3229      O3243   1.240       .  S
C3229      O3244   1.263       .  A
C3229      H3254   1.082       .  S
O3230      C3253   1.275       .  A
O3231     Mg3245   2.141       .  S
O3232     Mg3262   2.371       .  S
C3233      O3246   1.272       .  A
C3233      O3238   1.266       .  A
C3233      C4098   1.456       .  S
C3234      O3261   1.253       .  A
Mg3235     O3242   2.138       .  S
Mg3235     O3243   2.207       .  S
Mg3235     O3236   2.212       .  S
Mg3235     O3237   2.263       .  S
Mg3235     O3264   2.254       .  S
O3237      C3241   1.257   1_545  A
O3238     Mg3245   2.261       .  S
O3239      C3258   1.288       .  A
O3240      C3260   1.253       .  A
O3240     Mg3256   2.195       .  S
O3242     Mg3256   2.211       .  S
O3242      C3253   1.239       .  S
O3243     Mg3262   2.043       .  S
O3244     Mg3256   2.227       .  S
Mg3245     O3261   2.170       .  S
O3246     Mg3262   2.230   1_565  S
H3247      C3252   1.082       .  S
O3248     Mg3256   2.141       .  S
O3248      C3251   1.229       .  S
H3249      C3251   1.081       .  S
H3250      C3253   1.081       .  S
O3255     Mg3262   2.314       .  S
C3258      O3263   1.281   1_565  A
O3259      C3260   1.280       .  A
O3265     Mg3267   2.237       .  S
O3265     Mg3273   2.204       .  S
O3265      C3300   1.245       .  S
C3266      O3279   1.239       .  S
C3266      O3303   1.273       .  A
C3266      H3305   1.081       .  S
Mg3267     O3296   2.113       .  S
Mg3267     O3311   2.356       .  S
Mg3267     O3307   2.419       .  S
Mg3267     O3278   2.327       .  S
O3268     Mg3310   2.145       .  S
O3268     Mg3293   2.086       .  S
O3268      C3289   1.227       .  S
O3269      C3300   1.281       .  A
O3269     Mg3293   2.336       .  S
C3270      O3272   1.264       .  A
C3270      O3284   1.251       .  A
O3271      C3299   1.264       .  A
O3271     Mg3273   2.299       .  S
O3272     Mg3304   2.282       .  S
Mg3273     O3279   2.150       .  S
Mg3273     O3287   2.317       .  S
Mg3273     O3275   2.426       .  S
C3274      O3312   1.275       .  A
C3274      O3280   1.287       .  A
C3274      C3322   1.471       .  S
O3275      C3282   1.296       .  A
H3276      C3289   1.082       .  S
C3277      O3291   1.240       .  S
C3277      O3292   1.263       .  A
C3277      H3302   1.082       .  S
O3278      C3301   1.275       .  A
O3279     Mg3293   2.141       .  S
O3280     Mg3310   2.370       .  S
C3281      O3294   1.273       .  A
C3281      O3286   1.266       .  A
C3282      O3309   1.253       .  A
C3282      C4146   1.487       .  S
Mg3283     O3290   2.138       .  S
Mg3283     O3291   2.209       .  S
Mg3283     O3284   2.211       .  S
Mg3283     O3285   2.263       .  S
Mg3283     O3312   2.253       .  S
O3285      C3289   1.257       .  A
O3286     Mg3293   2.261       .  S
O3287      C3306   1.288       .  A
O3288      C3308   1.253       .  A
O3288     Mg3304   2.198       .  S
O3290     Mg3304   2.211       .  S
O3290      C3301   1.239       .  S
O3291     Mg3310   2.045       .  S
O3292     Mg3304   2.227       .  S
Mg3293     O3309   2.169       .  S
O3294     Mg3310   2.232       .  S
H3295      C3300   1.082       .  S
O3296     Mg3304   2.141       .  S
O3296      C3299   1.230       .  S
H3297      C3299   1.081       .  S
H3298      C3301   1.081       .  S
O3303     Mg3310   2.313       .  S
C3306      O3311   1.282       .  A
O3307      C3308   1.281       .  A
O3313     Mg3315   2.236       .  S
O3313     Mg3321   2.204       .  S
O3313      C3348   1.245       .  S
C3314      O3327   1.239       .  S
C3314      O3351   1.273       .  A
C3314      H3353   1.081       .  S
Mg3315     O3344   2.114       .  S
Mg3315     O3359   2.356       .  S
Mg3315     O3355   2.416       .  S
Mg3315     O3326   2.327       .  S
O3316     Mg3358   2.146       .  S
O3316     Mg3341   2.087       .  S
O3316      C3337   1.227       .  S
O3317      C3348   1.281       .  A
O3317     Mg3341   2.336       .  S
C3318      O3320   1.264       .  A
C3318      O3332   1.251       .  A
O3319      C3347   1.264       .  A
O3319     Mg3321   2.299       .  S
O3320     Mg3352   2.282       .  S
Mg3321     O3327   2.151       .  S
Mg3321     O3335   2.318       .  S
Mg3321     O3323   2.424       .  S
C3322      O3360   1.275       .  A
C3322      O3328   1.287       .  A
O3323      C3330   1.295       .  A
H3324      C3337   1.082       .  S
C3325      O3339   1.240       .  S
C3325      O3340   1.263       .  A
C3325      H3350   1.082       .  S
O3326      C3349   1.275       .  A
O3327     Mg3341   2.140       .  S
O3328     Mg3358   2.370       .  S
C3329      O3342   1.272       .  A
C3329      O3334   1.266       .  A
C3330      O3357   1.253       .  A
Mg3331     O3338   2.138       .  S
Mg3331     O3339   2.208       .  S
Mg3331     O3332   2.211       .  S
Mg3331     O3333   2.263       .  S
Mg3331     O3360   2.253       .  S
O3333      C3337   1.257       .  A
O3334     Mg3341   2.261       .  S
O3335      C3354   1.288       .  A
O3336      C3356   1.253       .  A
O3336     Mg3352   2.198       .  S
O3338     Mg3352   2.211       .  S
O3338      C3349   1.239       .  S
O3339     Mg3358   2.044       .  S
O3340     Mg3352   2.227       .  S
Mg3341     O3357   2.170       .  S
O3342     Mg3358   2.231       .  S
H3343      C3348   1.082       .  S
O3344     Mg3352   2.141       .  S
O3344      C3347   1.230       .  S
H3345      C3347   1.081       .  S
H3346      C3349   1.081       .  S
O3351     Mg3358   2.314       .  S
C3354      O3359   1.282       .  A
O3355      C3356   1.280       .  A
O3361     Mg3363   2.237       .  S
O3361     Mg3369   2.204       .  S
O3361      C3396   1.245       .  S
C3362      O3375   1.239       .  S
C3362      O3399   1.273       .  A
C3362      H3401   1.081       .  S
Mg3363     O3392   2.113       .  S
Mg3363     O3407   2.353       .  S
Mg3363     O3403   2.418       .  S
Mg3363     O3374   2.327       .  S
O3364     Mg3406   2.145       .  S
O3364     Mg3389   2.086       .  S
O3364      C3385   1.227       .  S
O3365      C3396   1.281       .  A
O3365     Mg3389   2.337       .  S
C3366      O3368   1.264       .  A
C3366      O3380   1.251       .  A
O3367      C3395   1.264       .  A
O3367     Mg3369   2.299       .  S
O3368     Mg3400   2.281       .  S
Mg3369     O3375   2.150       .  S
Mg3369     O3383   2.318       .  S
Mg3369     O3371   2.425       .  S
C3370      O3408   1.275       .  A
C3370      O3376   1.287       .  A
C3370      C3418   1.470   1_554  S
O3371      C3378   1.296       .  A
H3372      C3385   1.082       .  S
C3373      O3387   1.240       .  S
C3373      O3388   1.263       .  A
C3373      H3398   1.082       .  S
O3374      C3397   1.275       .  A
O3375     Mg3389   2.140       .  S
O3376     Mg3406   2.368       .  S
C3377      O3390   1.272       .  A
C3377      O3382   1.266       .  A
C3378      O3405   1.253       .  A
Mg3379     O3386   2.137       .  S
Mg3379     O3387   2.208       .  S
Mg3379     O3380   2.211       .  S
Mg3379     O3381   2.263       .  S
Mg3379     O3408   2.252       .  S
O3381      C3385   1.257       .  A
O3382     Mg3389   2.263       .  S
O3383      C3402   1.288       .  A
O3384      C3404   1.253       .  A
O3384     Mg3400   2.198       .  S
O3386     Mg3400   2.211       .  S
O3386      C3397   1.239       .  S
O3387     Mg3406   2.044       .  S
O3388     Mg3400   2.227       .  S
Mg3389     O3405   2.169       .  S
O3390     Mg3406   2.230       .  S
H3391      C3396   1.082       .  S
O3392     Mg3400   2.140       .  S
O3392      C3395   1.230       .  S
H3393      C3395   1.081       .  S
H3394      C3397   1.081       .  S
O3399     Mg3406   2.313       .  S
C3402      O3407   1.281       .  A
C3402      C4049   1.482       .  S
O3403      C3404   1.280       .  A
O3409     Mg3411   2.237       .  S
O3409     Mg3417   2.204       .  S
O3409      C3444   1.245       .  S
C3410      O3423   1.239       .  S
C3410      O3447   1.273       .  A
C3410      H3449   1.081       .  S
Mg3411     O3440   2.113       .  S
Mg3411     O3455   2.353       .  S
Mg3411     O3451   2.420       .  S
Mg3411     O3422   2.326       .  S
O3412     Mg3454   2.144       .  S
O3412     Mg3437   2.085       .  S
O3412      C3433   1.227       .  S
O3413      C3444   1.281       .  A
O3413     Mg3437   2.337       .  S
C3414      O3416   1.264       .  A
C3414      O3428   1.251       .  A
O3415      C3443   1.264       .  A
O3415     Mg3417   2.299       .  S
O3416     Mg3448   2.281       .  S
Mg3417     O3423   2.149       .  S
Mg3417     O3431   2.316       .  S
Mg3417     O3419   2.425       .  S
C3418      O3456   1.275       .  A
C3418      O3424   1.287       .  A
O3419      C3426   1.295       .  A
H3420      C3433   1.082       .  S
C3421      O3435   1.240       .  S
C3421      O3436   1.263       .  A
C3421      H3446   1.082       .  S
O3422      C3445   1.275       .  A
O3423     Mg3437   2.140       .  S
O3424     Mg3454   2.369       .  S
C3425      O3438   1.272       .  A
C3425      O3430   1.266       .  A
C3426      O3453   1.253       .  A
Mg3427     O3434   2.136       .  S
Mg3427     O3435   2.208       .  S
Mg3427     O3428   2.211       .  S
Mg3427     O3429   2.263       .  S
Mg3427     O3456   2.251       .  S
O3429      C3433   1.257       .  A
O3430     Mg3437   2.262       .  S
O3431      C3450   1.288       .  A
O3432      C3452   1.253       .  A
O3432     Mg3448   2.196       .  S
O3434     Mg3448   2.211       .  S
O3434      C3445   1.239       .  S
O3435     Mg3454   2.045       .  S
O3436     Mg3448   2.227       .  S
Mg3437     O3453   2.168       .  S
O3438     Mg3454   2.231       .  S
H3439      C3444   1.082       .  S
O3440     Mg3448   2.140       .  S
O3440      C3443   1.230       .  S
H3441      C3443   1.081       .  S
H3442      C3445   1.081       .  S
O3447     Mg3454   2.313       .  S
C3450      O3455   1.281       .  A
O3451      C3452   1.281       .  A
C3452      C4282   1.483       .  S
O3457     Mg3459   2.236       .  S
O3457     Mg3465   2.204       .  S
O3457      C3492   1.245       .  S
C3458      O3471   1.239       .  S
C3458      O3495   1.273       .  A
C3458      H3497   1.081       .  S
Mg3459     O3488   2.114       .  S
Mg3459     O3503   2.349       .  S
Mg3459     O3499   2.415   1_554  S
Mg3459     O3470   2.326       .  S
O3460     Mg3502   2.145       .  S
O3460     Mg3485   2.086       .  S
O3460      C3481   1.227       .  S
O3461      C3492   1.281       .  A
O3461     Mg3485   2.336       .  S
C3462      O3464   1.264       .  A
C3462      O3476   1.251       .  A
C3462      C4028   1.456       .  S
O3463      C3491   1.264       .  A
O3463     Mg3465   2.298       .  S
O3464     Mg3496   2.281       .  S
Mg3465     O3471   2.149       .  S
Mg3465     O3479   2.318       .  S
Mg3465     O3467   2.424       .  S
C3466      O3504   1.275       .  A
C3466      O3472   1.287       .  A
C3466      C3514   1.469       .  S
O3467      C3474   1.296       .  A
H3468      C3481   1.082       .  S
C3469      O3483   1.240   1_556  S
C3469      O3484   1.263       .  A
C3469      H3494   1.082       .  S
O3470      C3493   1.275       .  A
O3471     Mg3485   2.140       .  S
O3472     Mg3502   2.368       .  S
C3473      O3486   1.272       .  A
C3473      O3478   1.266       .  A
C3473      C3954   1.457       .  S
C3474      O3501   1.253       .  A
Mg3475     O3482   2.135       .  S
Mg3475     O3483   2.208       .  S
Mg3475     O3476   2.212   1_554  S
Mg3475     O3477   2.263       .  S
Mg3475     O3504   2.251       .  S
O3477      C3481   1.257       .  A
O3478     Mg3485   2.262       .  S
O3479      C3498   1.288       .  A
O3480      C3500   1.253       .  A
O3480     Mg3496   2.195       .  S
O3482     Mg3496   2.211   1_554  S
O3482      C3493   1.239       .  S
O3483     Mg3502   2.044       .  S
O3484     Mg3496   2.227       .  S
Mg3485     O3501   2.169       .  S
O3486     Mg3502   2.230       .  S
H3487      C3492   1.082       .  S
O3488     Mg3496   2.139   1_554  S
O3488      C3491   1.230       .  S
H3489      C3491   1.081   1_556  S
H3490      C3493   1.081   1_545  S
O3495     Mg3502   2.313       .  S
C3498      O3503   1.281       .  A
O3499      C3500   1.280       .  A
O3505     Mg3507   2.236       .  S
O3505     Mg3513   2.204       .  S
O3505      C3540   1.245       .  S
C3506      O3519   1.239       .  S
C3506      O3543   1.273       .  A
C3506      H3545   1.081       .  S
Mg3507     O3536   2.114   1_556  S
Mg3507     O3551   2.350       .  S
Mg3507     O3547   2.416   1_556  S
Mg3507     O3518   2.326       .  S
O3508     Mg3550   2.145       .  S
O3508     Mg3533   2.085       .  S
O3508      C3529   1.227       .  S
O3509      C3540   1.281       .  A
O3509     Mg3533   2.336       .  S
C3510      O3512   1.264       .  A
C3510      O3524   1.251       .  A
C3510      C3980   1.457       .  S
O3511      C3539   1.264   1_556  A
O3511     Mg3513   2.299       .  S
O3512     Mg3544   2.281       .  S
Mg3513     O3519   2.149       .  S
Mg3513     O3527   2.318       .  S
Mg3513     O3515   2.424       .  S
C3514      O3552   1.275       .  A
C3514      O3520   1.287   1_554  A
O3515      C3522   1.296       .  A
H3516      C3529   1.082       .  S
C3517      O3531   1.240       .  S
C3517      O3532   1.263       .  A
C3517      H3542   1.082       .  S
O3518      C3541   1.275   1_556  A
O3519     Mg3533   2.141       .  S
O3520     Mg3550   2.367       .  S
C3521      O3534   1.272       .  A
C3521      O3526   1.266       .  A
C3521      C4002   1.457       .  S
C3522      O3549   1.253       .  A
Mg3523     O3530   2.136       .  S
Mg3523     O3531   2.208       .  S
Mg3523     O3524   2.212       .  S
Mg3523     O3525   2.263   1_554  S
Mg3523     O3552   2.251       .  S
O3525      C3529   1.257       .  A
O3526     Mg3533   2.263       .  S
O3527      C3546   1.288       .  A
O3528      C3548   1.253       .  A
O3528     Mg3544   2.197       .  S
O3530     Mg3544   2.211       .  S
O3530      C3541   1.239       .  S
O3531     Mg3550   2.045   1_554  S
O3532     Mg3544   2.227       .  S
Mg3533     O3549   2.168       .  S
O3534     Mg3550   2.231       .  S
H3535      C3540   1.082       .  S
O3536     Mg3544   2.139       .  S
O3536      C3539   1.230       .  S
H3537      C3539   1.081       .  S
H3538      C3541   1.081   1_545  S
O3543     Mg3550   2.313       .  S
C3546      O3551   1.281       .  A
O3547      C3548   1.280       .  A
O3553     Mg3555   2.236       .  S
O3553     Mg3561   2.204       .  S
O3553      C3588   1.245       .  S
C3554      O3567   1.239       .  S
C3554      O3591   1.273       .  A
C3554      H3593   1.081       .  S
Mg3555     O3584   2.114       .  S
Mg3555     O3599   2.351       .  S
Mg3555     O3595   2.415       .  S
Mg3555     O3566   2.326       .  S
O3556     Mg3598   2.146       .  S
O3556     Mg3581   2.088       .  S
O3556      C3577   1.227       .  S
O3557      C3588   1.281       .  A
O3557     Mg3581   2.337       .  S
C3558      O3560   1.264       .  A
C3558      O3572   1.251       .  A
O3559      C3587   1.264       .  A
O3559     Mg3561   2.298       .  S
O3560     Mg3592   2.281       .  S
Mg3561     O3567   2.151       .  S
Mg3561     O3575   2.318       .  S
Mg3561     O3563   2.423       .  S
C3562      O3600   1.275       .  A
C3562      O3568   1.287       .  A
C3562      C3610   1.471       .  S
O3563      C3570   1.295       .  A
H3564      C3577   1.082       .  S
C3565      O3579   1.240       .  S
C3565      O3580   1.263       .  A
C3565      H3590   1.082       .  S
O3566      C3589   1.275       .  A
O3567     Mg3581   2.140       .  S
O3568     Mg3598   2.370       .  S
C3569      O3582   1.272       .  A
C3569      O3574   1.266       .  A
C3570      O3597   1.253       .  A
C3570      C3762   1.487       .  S
Mg3571     O3578   2.137       .  S
Mg3571     O3579   2.207       .  S
Mg3571     O3572   2.213       .  S
Mg3571     O3573   2.264       .  S
Mg3571     O3600   2.254       .  S
O3573      C3577   1.257       .  A
O3574     Mg3581   2.262       .  S
O3575      C3594   1.288       .  A
O3576      C3596   1.253       .  A
O3576     Mg3592   2.196       .  S
O3578     Mg3592   2.211       .  S
O3578      C3589   1.239       .  S
O3579     Mg3598   2.043       .  S
O3580     Mg3592   2.227       .  S
Mg3581     O3597   2.170       .  S
O3582     Mg3598   2.229       .  S
H3583      C3588   1.082       .  S
O3584     Mg3592   2.140       .  S
O3584      C3587   1.230       .  S
H3585      C3587   1.081       .  S
H3586      C3589   1.081       .  S
O3591     Mg3598   2.314       .  S
C3594      O3599   1.281       .  A
C3594      C4241   1.482       .  S
O3595      C3596   1.280       .  A
O3601     Mg3603   2.236       .  S
O3601     Mg3609   2.204       .  S
O3601      C3636   1.245       .  S
C3602      O3615   1.239       .  S
C3602      O3639   1.273       .  A
C3602      H3641   1.081       .  S
Mg3603     O3632   2.114       .  S
Mg3603     O3647   2.353       .  S
Mg3603     O3643   2.417       .  S
Mg3603     O3614   2.327       .  S
O3604     Mg3646   2.146       .  S
O3604     Mg3629   2.087       .  S
O3604      C3625   1.227       .  S
O3605      C3636   1.281       .  A
O3605     Mg3629   2.336       .  S
C3606      O3608   1.264       .  A
C3606      O3620   1.251       .  A
O3607      C3635   1.264       .  A
O3607     Mg3609   2.299       .  S
O3608     Mg3640   2.280       .  S
Mg3609     O3615   2.150       .  S
Mg3609     O3623   2.318       .  S
Mg3609     O3611   2.424       .  S
C3610      O3648   1.275       .  A
C3610      O3616   1.287       .  A
O3611      C3618   1.296       .  A
H3612      C3625   1.082       .  S
C3613      O3627   1.240       .  S
C3613      O3628   1.263       .  A
C3613      H3638   1.082       .  S
O3614      C3637   1.275       .  A
O3615     Mg3629   2.141       .  S
O3616     Mg3646   2.369   1_545  S
C3617      O3630   1.272       .  A
C3617      O3622   1.266       .  A
C3618      O3645   1.253       .  A
Mg3619     O3626   2.138       .  S
Mg3619     O3627   2.208       .  S
Mg3619     O3620   2.212       .  S
Mg3619     O3621   2.263       .  S
Mg3619     O3648   2.254   1_565  S
O3621      C3625   1.257       .  A
O3622     Mg3629   2.261       .  S
O3623      C3642   1.288       .  A
O3624      C3644   1.253       .  A
O3624     Mg3640   2.196       .  S
O3626     Mg3640   2.211       .  S
O3626      C3637   1.239       .  S
O3627     Mg3646   2.045       .  S
O3628     Mg3640   2.227       .  S
Mg3629     O3645   2.169       .  S
O3630     Mg3646   2.230       .  S
H3631      C3636   1.082       .  S
O3632     Mg3640   2.140       .  S
O3632      C3635   1.230       .  S
H3633      C3635   1.081       .  S
H3634      C3637   1.081       .  S
O3639     Mg3646   2.313       .  S
C3642      O3647   1.281       .  A
O3643      C3644   1.280       .  A
C3644      C3994   1.482       .  S
O3649     Mg3651   2.237       .  S
O3649     Mg3657   2.204       .  S
O3649      C3684   1.245       .  S
C3650      O3663   1.239       .  S
C3650      O3687   1.273       .  A
C3650      H3689   1.081       .  S
Mg3651     O3680   2.113       .  S
Mg3651     O3695   2.353       .  S
Mg3651     O3691   2.419       .  S
Mg3651     O3662   2.327       .  S
O3652     Mg3694   2.145       .  S
O3652     Mg3677   2.085       .  S
O3652      C3673   1.227       .  S
O3653      C3684   1.281       .  A
O3653     Mg3677   2.336       .  S
C3654      O3656   1.264       .  A
C3654      O3668   1.251       .  A
O3655      C3683   1.264       .  A
O3655     Mg3657   2.299       .  S
O3656     Mg3688   2.281       .  S
Mg3657     O3663   2.148       .  S
Mg3657     O3671   2.316       .  S
Mg3657     O3659   2.426       .  S
C3658      O3696   1.275       .  A
C3658      O3664   1.287       .  A
C3658      C3706   1.470       .  S
O3659      C3666   1.296       .  A
H3660      C3673   1.082       .  S
C3661      O3675   1.240       .  S
C3661      O3676   1.263       .  A
C3661      H3686   1.082       .  S
O3662      C3685   1.275       .  A
O3663     Mg3677   2.140       .  S
O3664     Mg3694   2.368       .  S
C3665      O3678   1.273       .  A
C3665      O3670   1.266       .  A
C3666      O3693   1.253       .  A
C3666      C4530   1.487       .  S
Mg3667     O3674   2.137       .  S
Mg3667     O3675   2.209       .  S
Mg3667     O3668   2.211       .  S
Mg3667     O3669   2.262       .  S
Mg3667     O3696   2.251       .  S
O3669      C3673   1.257       .  A
O3670     Mg3677   2.261       .  S
O3671      C3690   1.288       .  A
O3672      C3692   1.253       .  A
O3672     Mg3688   2.197       .  S
O3674     Mg3688   2.211       .  S
O3674      C3685   1.239       .  S
O3675     Mg3694   2.046       .  S
O3676     Mg3688   2.228       .  S
Mg3677     O3693   2.168       .  S
O3678     Mg3694   2.233       .  S
H3679      C3684   1.082       .  S
O3680     Mg3688   2.139       .  S
O3680      C3683   1.230       .  S
H3681      C3683   1.081       .  S
H3682      C3685   1.081       .  S
O3687     Mg3694   2.312       .  S
C3690      O3695   1.281       .  A
O3691      C3692   1.281       .  A
O3697     Mg3699   2.238       .  S
O3697     Mg3705   2.204       .  S
O3697      C3732   1.245       .  S
C3698      O3711   1.239       .  S
C3698      O3735   1.273       .  A
C3698      H3737   1.081       .  S
Mg3699     O3728   2.114       .  S
Mg3699     O3743   2.355       .  S
Mg3699     O3739   2.419       .  S
Mg3699     O3710   2.326       .  S
O3700     Mg3742   2.144       .  S
O3700     Mg3725   2.085       .  S
O3700      C3721   1.227       .  S
O3701      C3732   1.281       .  A
O3701     Mg3725   2.337       .  S
C3702      O3704   1.264       .  A
C3702      O3716   1.251       .  A
O3703      C3731   1.264       .  A
O3703     Mg3705   2.299       .  S
O3704     Mg3736   2.282       .  S
Mg3705     O3711   2.151       .  S
Mg3705     O3719   2.317       .  S
Mg3705     O3707   2.425       .  S
C3706      O3744   1.275       .  A
C3706      O3712   1.287       .  A
O3707      C3714   1.295       .  A
H3708      C3721   1.082       .  S
C3709      O3723   1.240       .  S
C3709      O3724   1.263       .  A
C3709      H3734   1.082       .  S
O3710      C3733   1.275       .  A
O3711     Mg3725   2.140       .  S
O3712     Mg3742   2.368       .  S
C3713      O3726   1.273       .  A
C3713      O3718   1.266       .  A
C3714      O3741   1.253       .  A
C3714      C4434   1.486       .  S
Mg3715     O3722   2.137       .  S
Mg3715     O3723   2.209       .  S
Mg3715     O3716   2.210       .  S
Mg3715     O3717   2.262       .  S
Mg3715     O3744   2.251       .  S
O3717      C3721   1.257       .  A
O3718     Mg3725   2.263       .  S
O3719      C3738   1.288       .  A
O3720      C3740   1.253       .  A
O3720     Mg3736   2.199       .  S
O3722     Mg3736   2.211       .  S
O3722      C3733   1.239       .  S
O3723     Mg3742   2.045       .  S
O3724     Mg3736   2.227       .  S
Mg3725     O3741   2.168       .  S
O3726     Mg3742   2.232       .  S
H3727      C3732   1.082       .  S
O3728     Mg3736   2.141       .  S
O3728      C3731   1.230       .  S
H3729      C3731   1.081       .  S
H3730      C3733   1.081       .  S
O3735     Mg3742   2.313       .  S
C3738      O3743   1.282       .  A
O3739      C3740   1.281       .  A
O3745     Mg3747   2.235       .  S
O3745     Mg3753   2.204       .  S
O3745      C3780   1.245       .  S
C3746      O3759   1.239       .  S
C3746      O3783   1.273       .  A
C3746      H3785   1.081       .  S
Mg3747     O3776   2.114       .  S
Mg3747     O3791   2.352       .  S
Mg3747     O3787   2.415   1_455  S
Mg3747     O3758   2.327       .  S
O3748     Mg3790   2.146       .  S
O3748     Mg3773   2.088       .  S
O3748      C3769   1.227       .  S
O3749      C3780   1.281       .  A
O3749     Mg3773   2.336       .  S
C3750      O3752   1.264       .  A
C3750      O3764   1.251       .  A
C3750      C4316   1.457       .  S
O3751      C3779   1.264       .  A
O3751     Mg3753   2.298       .  S
O3752     Mg3784   2.281       .  S
Mg3753     O3759   2.151       .  S
Mg3753     O3767   2.318       .  S
Mg3753     O3755   2.424       .  S
C3754      O3792   1.275   1_455  A
C3754      O3760   1.287       .  A
C3754      C3802   1.471       .  S
O3755      C3762   1.295       .  A
H3756      C3769   1.082       .  S
C3757      O3771   1.240   1_655  S
C3757      O3772   1.263       .  A
C3757      H3782   1.082       .  S
O3758      C3781   1.275       .  A
O3759     Mg3773   2.140       .  S
O3760     Mg3790   2.371       .  S
C3761      O3774   1.272       .  A
C3761      O3766   1.266       .  A
C3761      C4242   1.456       .  S
C3762      O3789   1.253       .  A
Mg3763     O3770   2.137       .  S
Mg3763     O3771   2.207       .  S
Mg3763     O3764   2.212   1_455  S
Mg3763     O3765   2.263       .  S
Mg3763     O3792   2.254   1_455  S
O3765      C3769   1.257       .  A
O3766     Mg3773   2.262       .  S
O3767      C3786   1.288       .  A
O3768      C3788   1.253       .  A
O3768     Mg3784   2.195       .  S
O3770     Mg3784   2.211   1_455  S
O3770      C3781   1.239       .  S
O3771     Mg3790   2.043       .  S
O3772     Mg3784   2.227       .  S
Mg3773     O3789   2.170       .  S
O3774     Mg3790   2.229       .  S
H3775      C3780   1.082       .  S
O3776     Mg3784   2.140   1_455  S
O3776      C3779   1.230       .  S
H3777      C3779   1.081   1_655  S
H3778      C3781   1.081       .  S
O3783     Mg3790   2.314       .  S
C3786      O3791   1.281       .  A
O3787      C3788   1.280       .  A
O3793     Mg3795   2.237       .  S
O3793     Mg3801   2.204       .  S
O3793      C3828   1.245       .  S
C3794      O3807   1.239       .  S
C3794      O3831   1.274       .  A
C3794      H3833   1.081       .  S
Mg3795     O3824   2.114   1_655  S
Mg3795     O3839   2.357       .  S
Mg3795     O3835   2.419   1_655  S
Mg3795     O3806   2.327       .  S
O3796     Mg3838   2.145       .  S
O3796     Mg3821   2.086       .  S
O3796      C3817   1.227       .  S
O3797      C3828   1.281       .  A
O3797     Mg3821   2.337       .  S
C3798      O3800   1.264       .  A
C3798      O3812   1.251       .  A
C3798      C4268   1.456       .  S
O3799      C3827   1.264   1_655  A
O3799     Mg3801   2.299       .  S
O3800     Mg3832   2.281       .  S
Mg3801     O3807   2.152       .  S
Mg3801     O3815   2.319       .  S
Mg3801     O3803   2.425       .  S
C3802      O3840   1.275       .  A
C3802      O3808   1.287   1_455  A
O3803      C3810   1.295       .  A
H3804      C3817   1.082       .  S
C3805      O3819   1.240       .  S
C3805      O3820   1.263       .  A
C3805      H3830   1.082       .  S
O3806      C3829   1.275       .  A
O3807     Mg3821   2.141       .  S
O3808     Mg3838   2.371       .  S
C3809      O3822   1.272       .  A
C3809      O3814   1.266       .  A
C3809      C4290   1.457       .  S
C3810      O3837   1.253       .  A
Mg3811     O3818   2.139       .  S
Mg3811     O3819   2.208       .  S
Mg3811     O3812   2.211       .  S
Mg3811     O3813   2.263   1_455  S
Mg3811     O3840   2.255       .  S
O3813      C3817   1.257       .  A
O3814     Mg3821   2.262       .  S
O3815      C3834   1.288       .  A
O3816      C3836   1.253       .  A
O3816     Mg3832   2.197       .  S
O3818     Mg3832   2.211       .  S
O3818      C3829   1.239   1_455  S
O3819     Mg3838   2.044   1_455  S
O3820     Mg3832   2.227       .  S
Mg3821     O3837   2.169       .  S
O3822     Mg3838   2.230       .  S
H3823      C3828   1.082       .  S
O3824     Mg3832   2.141       .  S
O3824      C3827   1.230       .  S
H3825      C3827   1.081       .  S
H3826      C3829   1.081       .  S
O3831     Mg3838   2.314       .  S
C3834      O3839   1.282       .  A
O3835      C3836   1.281       .  A
O3841     Mg3843   2.236       .  S
O3841     Mg3849   2.204       .  S
O3841      C3876   1.245       .  S
C3842      O3855   1.239       .  S
C3842      O3879   1.273       .  A
C3842      H3881   1.081       .  S
Mg3843     O3872   2.114       .  S
Mg3843     O3887   2.355       .  S
Mg3843     O3883   2.417       .  S
Mg3843     O3854   2.328       .  S
O3844     Mg3886   2.146       .  S
O3844     Mg3869   2.087       .  S
O3844      C3865   1.227       .  S
O3845      C3876   1.281       .  A
O3845     Mg3869   2.336       .  S
C3846      O3848   1.264       .  A
C3846      O3860   1.251       .  A
O3847      C3875   1.264       .  A
O3847     Mg3849   2.299       .  S
O3848     Mg3880   2.281       .  S
Mg3849     O3855   2.149       .  S
Mg3849     O3863   2.316       .  S
Mg3849     O3851   2.424       .  S
C3850      O3888   1.275       .  A
C3850      O3856   1.287       .  A
C3850      C3898   1.471       .  S
O3851      C3858   1.295       .  A
H3852      C3865   1.082       .  S
C3853      O3867   1.240       .  S
C3853      O3868   1.263       .  A
C3853      H3878   1.082       .  S
O3854      C3877   1.275       .  A
O3855     Mg3869   2.140       .  S
O3856     Mg3886   2.370       .  S
C3857      O3870   1.273       .  A
C3857      O3862   1.265       .  A
C3858      O3885   1.253       .  A
C3858      C4338   1.487       .  S
Mg3859     O3866   2.139       .  S
Mg3859     O3867   2.208       .  S
Mg3859     O3860   2.212       .  S
Mg3859     O3861   2.263       .  S
Mg3859     O3888   2.254       .  S
O3861      C3865   1.257       .  A
O3862     Mg3869   2.259       .  S
O3863      C3882   1.288       .  A
O3864      C3884   1.253       .  A
O3864     Mg3880   2.197       .  S
O3866     Mg3880   2.211       .  S
O3866      C3877   1.239       .  S
O3867     Mg3886   2.045       .  S
O3868     Mg3880   2.227       .  S
Mg3869     O3885   2.170       .  S
O3870     Mg3886   2.233       .  S
H3871      C3876   1.082       .  S
O3872     Mg3880   2.141       .  S
O3872      C3875   1.230       .  S
H3873      C3875   1.081       .  S
H3874      C3877   1.081       .  S
O3879     Mg3886   2.313       .  S
C3882      O3887   1.282       .  A
O3883      C3884   1.280       .  A
O3889     Mg3891   2.235       .  S
O3889     Mg3897   2.204       .  S
O3889      C3924   1.245       .  S
C3890      O3903   1.239       .  S
C3890      O3927   1.273       .  A
C3890      H3929   1.081       .  S
Mg3891     O3920   2.114       .  S
Mg3891     O3935   2.355       .  S
Mg3891     O3931   2.415       .  S
Mg3891     O3902   2.328       .  S
O3892     Mg3934   2.146       .  S
O3892     Mg3917   2.088       .  S
O3892      C3913   1.227       .  S
O3893      C3924   1.281       .  A
O3893     Mg3917   2.336       .  S
C3894      O3896   1.264       .  A
C3894      O3908   1.251       .  A
O3895      C3923   1.264       .  A
O3895     Mg3897   2.299       .  S
O3896     Mg3928   2.281       .  S
Mg3897     O3903   2.150       .  S
Mg3897     O3911   2.317       .  S
Mg3897     O3899   2.424       .  S
C3898      O3936   1.275       .  A
C3898      O3904   1.287       .  A
O3899      C3906   1.295       .  A
H3900      C3913   1.082       .  S
C3901      O3915   1.240       .  S
C3901      O3916   1.263       .  A
C3901      H3926   1.082       .  S
O3902      C3925   1.276       .  A
O3903     Mg3917   2.140       .  S
O3904     Mg3934   2.370       .  S
C3905      O3918   1.272       .  A
C3905      O3910   1.266       .  A
C3906      O3933   1.253       .  A
Mg3907     O3914   2.138       .  S
Mg3907     O3915   2.208       .  S
Mg3907     O3908   2.213       .  S
Mg3907     O3909   2.264       .  S
Mg3907     O3936   2.253       .  S
O3909      C3913   1.257       .  A
O3910     Mg3917   2.259       .  S
O3911      C3930   1.288       .  A
O3912      C3932   1.253       .  A
O3912     Mg3928   2.195       .  S
O3914     Mg3928   2.210       .  S
O3914      C3925   1.239       .  S
O3915     Mg3934   2.044       .  S
O3916     Mg3928   2.227       .  S
Mg3917     O3933   2.171       .  S
O3918     Mg3934   2.231       .  S
H3919      C3924   1.082       .  S
O3920     Mg3928   2.141       .  S
O3920      C3923   1.230       .  S
H3921      C3923   1.081       .  S
H3922      C3925   1.081       .  S
O3927     Mg3934   2.313       .  S
C3930      O3935   1.282       .  A
O3931      C3932   1.280       .  A
O3937     Mg3939   2.044       .  S
O3937     Mg3945   2.208       .  S
O3937      C3972   1.240       .  S
C3938      O3951   1.239       .  S
C3938      O3975   1.275       .  A
C3938      H3977   1.081       .  S
Mg3939     O3968   2.145       .  S
Mg3939     O3983   2.369       .  S
Mg3939     O3979   2.230       .  S
Mg3939     O3950   2.313       .  S
O3940     Mg3982   2.114       .  S
O3940     Mg3965   2.140       .  S
O3940      C3961   1.230       .  S
O3941      C3972   1.263       .  A
O3941     Mg3965   2.227       .  S
C3942      O3944   1.253       .  A
C3942      O3956   1.295       .  A
O3943      C3971   1.257       .  A
O3943     Mg3945   2.263       .  S
O3944     Mg3976   2.169       .  S
Mg3945     O3951   2.136       .  S
Mg3945     O3959   2.251       .  S
Mg3945     O3947   2.211       .  S
C3946      O3984   1.288       .  A
C3946      O3952   1.281       .  A
C3946      C4412   1.481       .  S
O3947      C3954   1.251       .  A
H3948      C3961   1.081       .  S
C3949      O3963   1.245       .  S
C3949      O3964   1.281       .  A
C3949      H3974   1.082       .  S
O3950      C3973   1.273       .  A
O3951     Mg3965   2.211       .  S
O3952     Mg3982   2.351       .  S
C3953      O3966   1.280       .  A
C3953      O3958   1.253       .  A
C3954      O3981   1.264       .  A
Mg3955     O3962   2.150       .  S
Mg3955     O3963   2.204       .  S
Mg3955     O3956   2.424       .  S
Mg3955     O3957   2.299       .  S
Mg3955     O3984   2.317       .  S
O3957      C3961   1.264       .  A
O3958     Mg3965   2.196       .  S
O3959      C3978   1.275       .  A
O3960      C3980   1.266       .  A
O3960     Mg3976   2.262       .  S
O3962     Mg3976   2.140       .  S
O3962      C3973   1.239       .  S
O3963     Mg3982   2.236       .  S
O3964     Mg3976   2.336       .  S
Mg3965     O3981   2.281       .  S
O3966     Mg3982   2.417       .  S
H3967      C3972   1.082       .  S
O3968     Mg3976   2.086       .  S
O3968      C3971   1.227       .  S
H3969      C3971   1.082       .  S
H3970      C3973   1.081       .  S
O3975     Mg3982   2.326       .  S
C3978      O3983   1.287       .  A
C3978      C4026   1.470       .  S
O3979      C3980   1.272       .  A
O3985     Mg3987   2.043       .  S
O3985     Mg3993   2.208       .  S
O3985      C4020   1.240       .  S
C3986      O3999   1.239       .  S
C3986      O4023   1.275       .  A
C3986      H4025   1.081       .  S
Mg3987     O4016   2.145       .  S
Mg3987     O4031   2.369       .  S
Mg3987     O4027   2.229       .  S
Mg3987     O3998   2.314       .  S
O3988     Mg4030   2.114       .  S
O3988     Mg4013   2.140       .  S
O3988      C4009   1.230       .  S
O3989      C4020   1.263       .  A
O3989     Mg4013   2.227       .  S
C3990      O3992   1.253       .  A
C3990      O4004   1.295       .  A
O3991      C4019   1.257       .  A
O3991     Mg3993   2.263       .  S
O3992     Mg4024   2.169       .  S
Mg3993     O3999   2.136       .  S
Mg3993     O4007   2.251       .  S
Mg3993     O3995   2.211       .  S
C3994      O4032   1.288       .  A
C3994      O4000   1.281       .  A
O3995      C4002   1.251       .  A
H3996      C4009   1.081       .  S
C3997      O4011   1.245       .  S
C3997      O4012   1.281       .  A
C3997      H4022   1.082       .  S
O3998      C4021   1.273       .  A
O3999     Mg4013   2.211       .  S
O4000     Mg4030   2.353       .  S
C4001      O4014   1.280       .  A
C4001      O4006   1.253       .  A
C4002      O4029   1.264       .  A
Mg4003     O4010   2.151       .  S
Mg4003     O4011   2.204       .  S
Mg4003     O4004   2.424       .  S
Mg4003     O4005   2.298       .  S
Mg4003     O4032   2.319       .  S
O4005      C4009   1.264       .  A
O4006     Mg4013   2.195       .  S
O4007      C4026   1.275   1_556  A
O4008      C4028   1.266       .  A
O4008     Mg4024   2.263       .  S
O4010     Mg4024   2.140       .  S
O4010      C4021   1.239       .  S
O4011     Mg4030   2.236       .  S
O4012     Mg4024   2.336       .  S
Mg4013     O4029   2.282       .  S
O4014     Mg4030   2.416       .  S
H4015      C4020   1.082       .  S
O4016     Mg4024   2.086       .  S
O4016      C4019   1.227       .  S
H4017      C4019   1.082       .  S
H4018      C4021   1.081       .  S
O4023     Mg4030   2.327       .  S
C4026      O4031   1.287   1_554  A
O4027      C4028   1.272       .  A
O4033     Mg4035   2.045       .  S
O4033     Mg4041   2.209       .  S
O4033      C4068   1.240       .  S
C4034      O4047   1.239       .  S
C4034      O4071   1.275       .  A
C4034      H4073   1.081       .  S
Mg4035     O4064   2.144       .  S
Mg4035     O4079   2.369       .  S
Mg4035     O4075   2.231       .  S
Mg4035     O4046   2.313       .  S
O4036     Mg4078   2.114       .  S
O4036     Mg4061   2.139       .  S
O4036      C4057   1.230       .  S
O4037      C4068   1.263       .  A
O4037     Mg4061   2.227       .  S
C4038      O4040   1.253       .  A
C4038      O4052   1.295       .  A
O4039      C4067   1.257       .  A
O4039     Mg4041   2.262       .  S
O4040     Mg4072   2.167       .  S
Mg4041     O4047   2.136       .  S
Mg4041     O4055   2.252       .  S
Mg4041     O4043   2.210       .  S
C4042      O4080   1.288       .  A
C4042      O4048   1.281       .  A
C4042      C4604   1.481       .  S
O4043      C4050   1.251       .  A
H4044      C4057   1.081       .  S
C4045      O4059   1.245       .  S
C4045      O4060   1.281       .  A
C4045      H4070   1.082       .  S
O4046      C4069   1.273       .  A
O4047     Mg4061   2.211       .  S
O4048     Mg4078   2.352       .  S
C4049      O4062   1.280       .  A
C4049      O4054   1.253       .  A
C4050      O4077   1.264       .  A
Mg4051     O4058   2.150       .  S
Mg4051     O4059   2.204       .  S
Mg4051     O4052   2.423       .  S
Mg4051     O4053   2.299       .  S
Mg4051     O4080   2.317       .  S
O4053      C4057   1.264       .  A
O4054     Mg4061   2.196       .  S
O4055      C4074   1.275       .  A
O4056      C4076   1.266       .  A
O4056     Mg4072   2.263       .  S
O4058     Mg4072   2.141       .  S
O4058      C4069   1.239       .  S
O4059     Mg4078   2.236       .  S
O4060     Mg4072   2.336       .  S
Mg4061     O4077   2.281       .  S
O4062     Mg4078   2.417       .  S
H4063      C4068   1.082       .  S
O4064     Mg4072   2.084       .  S
O4064      C4067   1.227       .  S
H4065      C4067   1.082       .  S
H4066      C4069   1.081       .  S
O4071     Mg4078   2.326       .  S
C4074      O4079   1.287       .  A
C4074      C4122   1.470       .  S
O4075      C4076   1.272       .  A
O4081     Mg4083   2.044       .  S
O4081     Mg4089   2.208       .  S
O4081      C4116   1.240       .  S
C4082      O4095   1.239       .  S
C4082      O4119   1.275       .  A
C4082      H4121   1.081       .  S
Mg4083     O4112   2.144       .  S
Mg4083     O4127   2.369   1_565  S
Mg4083     O4123   2.229       .  S
Mg4083     O4094   2.314       .  S
O4084     Mg4126   2.113       .  S
O4084     Mg4109   2.140       .  S
O4084      C4105   1.230       .  S
O4085      C4116   1.263       .  A
O4085     Mg4109   2.227       .  S
C4086      O4088   1.253       .  A
C4086      O4100   1.296       .  A
O4087      C4115   1.257       .  A
O4087     Mg4089   2.263       .  S
O4088     Mg4120   2.167       .  S
Mg4089     O4095   2.137       .  S
Mg4089     O4103   2.252   1_565  S
Mg4089     O4091   2.210       .  S
C4090      O4128   1.288       .  A
C4090      O4096   1.281       .  A
O4091      C4098   1.251       .  A
H4092      C4105   1.081       .  S
C4093      O4107   1.245       .  S
C4093      O4108   1.281       .  A
C4093      H4118   1.082       .  S
O4094      C4117   1.273       .  A
O4095     Mg4109   2.211       .  S
O4096     Mg4126   2.354       .  S
C4097      O4110   1.281       .  A
C4097      O4102   1.253       .  A
C4098      O4125   1.264       .  A
Mg4099     O4106   2.151       .  S
Mg4099     O4107   2.204       .  S
Mg4099     O4100   2.425       .  S
Mg4099     O4101   2.299       .  S
Mg4099     O4128   2.318       .  S
O4101      C4105   1.264       .  A
O4102     Mg4109   2.197       .  S
O4103      C4122   1.275       .  A
O4104      C4124   1.266       .  A
O4104     Mg4120   2.264       .  S
O4106     Mg4120   2.140       .  S
O4106      C4117   1.239       .  S
O4107     Mg4126   2.238       .  S
O4108     Mg4120   2.337       .  S
Mg4109     O4125   2.281       .  S
O4110     Mg4126   2.419       .  S
H4111      C4116   1.082       .  S
O4112     Mg4120   2.085       .  S
O4112      C4115   1.227       .  S
H4113      C4115   1.082       .  S
H4114      C4117   1.081       .  S
O4119     Mg4126   2.326       .  S
C4122      O4127   1.287       .  A
O4123      C4124   1.272       .  A
O4129     Mg4131   2.238       .  S
O4129     Mg4137   2.205       .  S
O4129      C4164   1.245       .  S
C4130      O4143   1.239       .  S
C4130      O4167   1.273       .  A
C4130      H4169   1.081       .  S
Mg4131     O4160   2.113       .  S
Mg4131     O4175   2.354       .  S
Mg4131     O4171   2.420       .  S
Mg4131     O4142   2.326       .  S
O4132     Mg4174   2.145       .  S
O4132     Mg4157   2.085       .  S
O4132      C4153   1.227       .  S
O4133      C4164   1.281       .  A
O4133     Mg4157   2.337       .  S
C4134      O4136   1.264       .  A
C4134      O4148   1.251       .  A
O4135      C4163   1.264       .  A
O4135     Mg4137   2.299       .  S
O4136     Mg4168   2.282       .  S
Mg4137     O4143   2.150       .  S
Mg4137     O4151   2.317       .  S
Mg4137     O4139   2.426       .  S
C4138      O4176   1.275       .  A
C4138      O4144   1.287       .  A
C4138      C4186   1.469       .  S
O4139      C4146   1.296       .  A
H4140      C4153   1.082       .  S
C4141      O4155   1.240       .  S
C4141      O4156   1.263       .  A
C4141      H4166   1.082       .  S
O4142      C4165   1.275       .  A
O4143     Mg4157   2.141       .  S
O4144     Mg4174   2.368       .  S
C4145      O4158   1.273       .  A
C4145      O4150   1.266       .  A
C4146      O4173   1.253       .  A
Mg4147     O4154   2.136       .  S
Mg4147     O4155   2.209       .  S
Mg4147     O4148   2.212       .  S
Mg4147     O4149   2.263       .  S
Mg4147     O4176   2.251       .  S
O4149      C4153   1.257       .  A
O4150     Mg4157   2.261       .  S
O4151      C4170   1.288       .  A
O4152      C4172   1.253       .  A
O4152     Mg4168   2.197       .  S
O4154     Mg4168   2.211       .  S
O4154      C4165   1.239       .  S
O4155     Mg4174   2.045       .  S
O4156     Mg4168   2.227       .  S
Mg4157     O4173   2.169       .  S
O4158     Mg4174   2.232       .  S
H4159      C4164   1.082       .  S
O4160     Mg4168   2.140       .  S
O4160      C4163   1.230       .  S
H4161      C4163   1.081       .  S
H4162      C4165   1.081       .  S
O4167     Mg4174   2.313       .  S
C4170      O4175   1.282       .  A
O4171      C4172   1.281       .  A
O4177     Mg4179   2.236       .  S
O4177     Mg4185   2.204       .  S
O4177      C4212   1.245       .  S
C4178      O4191   1.239       .  S
C4178      O4215   1.273       .  A
C4178      H4217   1.081       .  S
Mg4179     O4208   2.113       .  S
Mg4179     O4223   2.350       .  S
Mg4179     O4219   2.416       .  S
Mg4179     O4190   2.327       .  S
O4180     Mg4222   2.145       .  S
O4180     Mg4205   2.086       .  S
O4180      C4201   1.227       .  S
O4181      C4212   1.281       .  A
O4181     Mg4205   2.336       .  S
C4182      O4184   1.264       .  A
C4182      O4196   1.251       .  A
O4183      C4211   1.264       .  A
O4183     Mg4185   2.299       .  S
O4184     Mg4216   2.281       .  S
Mg4185     O4191   2.148       .  S
Mg4185     O4199   2.317       .  S
Mg4185     O4187   2.426       .  S
C4186      O4224   1.275   1_554  A
C4186      O4192   1.287   1_554  A
O4187      C4194   1.296       .  A
H4188      C4201   1.082       .  S
C4189      O4203   1.240       .  S
C4189      O4204   1.263       .  A
C4189      H4214   1.082       .  S
O4190      C4213   1.275       .  A
O4191     Mg4205   2.140       .  S
O4192     Mg4222   2.367       .  S
C4193      O4206   1.273       .  A
C4193      O4198   1.266       .  A
C4194      O4221   1.253       .  A
Mg4195     O4202   2.136       .  S
Mg4195     O4203   2.209       .  S
Mg4195     O4196   2.212       .  S
Mg4195     O4197   2.263       .  S
Mg4195     O4224   2.251       .  S
O4197      C4201   1.257       .  A
O4198     Mg4205   2.261       .  S
O4199      C4218   1.288       .  A
O4200      C4220   1.253       .  A
O4200     Mg4216   2.197       .  S
O4202     Mg4216   2.211       .  S
O4202      C4213   1.239       .  S
O4203     Mg4222   2.045       .  S
O4204     Mg4216   2.228       .  S
Mg4205     O4221   2.169       .  S
O4206     Mg4222   2.232       .  S
H4207      C4212   1.082       .  S
O4208     Mg4216   2.139       .  S
O4208      C4211   1.230       .  S
H4209      C4211   1.081       .  S
H4210      C4213   1.081       .  S
O4215     Mg4222   2.312       .  S
C4218      O4223   1.281       .  A
O4219      C4220   1.280       .  A
C4220      C4234   1.482       .  S
O4225     Mg4227   2.044       .  S
O4225     Mg4233   2.208       .  S
O4225      C4260   1.240       .  S
C4226      O4239   1.239       .  S
C4226      O4263   1.275       .  A
C4226      H4265   1.081       .  S
Mg4227     O4256   2.146       .  S
Mg4227     O4271   2.370       .  S
Mg4227     O4267   2.231       .  S
Mg4227     O4238   2.313       .  S
O4228     Mg4270   2.114       .  S
O4228     Mg4253   2.140       .  S
O4228      C4249   1.230       .  S
O4229      C4260   1.263       .  A
O4229     Mg4253   2.227       .  S
C4230      O4232   1.253       .  A
C4230      O4244   1.295       .  A
O4231      C4259   1.257       .  A
O4231     Mg4233   2.263       .  S
O4232     Mg4264   2.169       .  S
Mg4233     O4239   2.138       .  S
Mg4233     O4247   2.254       .  S
Mg4233     O4235   2.212       .  S
C4234      O4272   1.288       .  A
C4234      O4240   1.281       .  A
O4235      C4242   1.251       .  A
H4236      C4249   1.081       .  S
C4237      O4251   1.245       .  S
C4237      O4252   1.281       .  A
C4237      H4262   1.082       .  S
O4238      C4261   1.273       .  A
O4239     Mg4253   2.211       .  S
O4240     Mg4270   2.353       .  S
C4241      O4254   1.280       .  A
C4241      O4246   1.253       .  A
C4242      O4269   1.264       .  A
Mg4243     O4250   2.150       .  S
Mg4243     O4251   2.204       .  S
Mg4243     O4244   2.423       .  S
Mg4243     O4245   2.298       .  S
Mg4243     O4272   2.318       .  S
O4245      C4249   1.264       .  A
O4246     Mg4253   2.196       .  S
O4247      C4266   1.275       .  A
O4248      C4268   1.266       .  A
O4248     Mg4264   2.261       .  S
O4250     Mg4264   2.141       .  S
O4250      C4261   1.239       .  S
O4251     Mg4270   2.235       .  S
O4252     Mg4264   2.336       .  S
Mg4253     O4269   2.280       .  S
O4254     Mg4270   2.416       .  S
H4255      C4260   1.082       .  S
O4256     Mg4264   2.087       .  S
O4256      C4259   1.227       .  S
H4257      C4259   1.082       .  S
H4258      C4261   1.081       .  S
O4263     Mg4270   2.327       .  S
C4266      O4271   1.287       .  A
C4266      C4314   1.471   1_455  S
O4267      C4268   1.272       .  A
O4273     Mg4275   2.044       .  S
O4273     Mg4281   2.207       .  S
O4273      C4308   1.240       .  S
C4274      O4287   1.239       .  S
C4274      O4311   1.275       .  A
C4274      H4313   1.081       .  S
Mg4275     O4304   2.145       .  S
Mg4275     O4319   2.370       .  S
Mg4275     O4315   2.229       .  S
Mg4275     O4286   2.314       .  S
O4276     Mg4318   2.114       .  S
O4276     Mg4301   2.141       .  S
O4276      C4297   1.230       .  S
O4277      C4308   1.263       .  A
O4277     Mg4301   2.227       .  S
C4278      O4280   1.253       .  A
C4278      O4292   1.296       .  A
O4279      C4307   1.257       .  A
O4279     Mg4281   2.263       .  S
O4280     Mg4312   2.169       .  S
Mg4281     O4287   2.138       .  S
Mg4281     O4295   2.254       .  S
Mg4281     O4283   2.211       .  S
C4282      O4320   1.288       .  A
C4282      O4288   1.281       .  A
O4283      C4290   1.251       .  A
H4284      C4297   1.081       .  S
C4285      O4299   1.245       .  S
C4285      O4300   1.281       .  A
C4285      H4310   1.082       .  S
O4286      C4309   1.274       .  A
O4287     Mg4301   2.211       .  S
O4288     Mg4318   2.354       .  S
C4289      O4302   1.280       .  A
C4289      O4294   1.253       .  A
C4290      O4317   1.264       .  A
Mg4291     O4298   2.151       .  S
Mg4291     O4299   2.204       .  S
Mg4291     O4292   2.425       .  S
Mg4291     O4293   2.299       .  S
Mg4291     O4320   2.319       .  S
O4293      C4297   1.264       .  A
O4294     Mg4301   2.197       .  S
O4295      C4314   1.275       .  A
O4296      C4316   1.266       .  A
O4296     Mg4312   2.263       .  S
O4298     Mg4312   2.141       .  S
O4298      C4309   1.239       .  S
O4299     Mg4318   2.237       .  S
O4300     Mg4312   2.337       .  S
Mg4301     O4317   2.281       .  S
O4302     Mg4318   2.417       .  S
H4303      C4308   1.082       .  S
O4304     Mg4312   2.087       .  S
O4304      C4307   1.227       .  S
H4305      C4307   1.082       .  S
H4306      C4309   1.081       .  S
O4311     Mg4318   2.327       .  S
C4314      O4319   1.287       .  A
O4315      C4316   1.272       .  A
O4321     Mg4323   2.237       .  S
O4321     Mg4329   2.204       .  S
O4321      C4356   1.245       .  S
C4322      O4335   1.239       .  S
C4322      O4359   1.273       .  A
C4322      H4361   1.081       .  S
Mg4323     O4352   2.113       .  S
Mg4323     O4367   2.357       .  S
Mg4323     O4363   2.419       .  S
Mg4323     O4334   2.327       .  S
O4324     Mg4366   2.145       .  S
O4324     Mg4349   2.086       .  S
O4324      C4345   1.227       .  S
O4325      C4356   1.281       .  A
O4325     Mg4349   2.336       .  S
C4326      O4328   1.264       .  A
C4326      O4340   1.251       .  A
O4327      C4355   1.264       .  A
O4327     Mg4329   2.299       .  S
O4328     Mg4360   2.282       .  S
Mg4329     O4335   2.150       .  S
Mg4329     O4343   2.316       .  S
Mg4329     O4331   2.426       .  S
C4330      O4368   1.275       .  A
C4330      O4336   1.287       .  A
C4330      C4378   1.470       .  S
O4331      C4338   1.295       .  A
H4332      C4345   1.082       .  S
C4333      O4347   1.240       .  S
C4333      O4348   1.263       .  A
C4333      H4358   1.082       .  S
O4334      C4357   1.275       .  A
O4335     Mg4349   2.140       .  S
O4336     Mg4366   2.369       .  S
C4337      O4350   1.273       .  A
C4337      O4342   1.266       .  A
C4338      O4365   1.253       .  A
Mg4339     O4346   2.138       .  S
Mg4339     O4347   2.209       .  S
Mg4339     O4340   2.211       .  S
Mg4339     O4341   2.263       .  S
Mg4339     O4368   2.252       .  S
O4341      C4345   1.257       .  A
O4342     Mg4349   2.261       .  S
O4343      C4362   1.288       .  A
O4344      C4364   1.253       .  A
O4344     Mg4360   2.198       .  S
O4346     Mg4360   2.211       .  S
O4346      C4357   1.239       .  S
O4347     Mg4366   2.045       .  S
O4348     Mg4360   2.227       .  S
Mg4349     O4365   2.169       .  S
O4350     Mg4366   2.232       .  S
H4351      C4356   1.082       .  S
O4352     Mg4360   2.141       .  S
O4352      C4355   1.230       .  S
H4353      C4355   1.081       .  S
H4354      C4357   1.081       .  S
O4359     Mg4366   2.313       .  S
C4362      O4367   1.282       .  A
O4363      C4364   1.281       .  A
O4369     Mg4371   2.235       .  S
O4369     Mg4377   2.204       .  S
O4369      C4404   1.245       .  S
C4370      O4383   1.239       .  S
C4370      O4407   1.273       .  A
C4370      H4409   1.081       .  S
Mg4371     O4400   2.114       .  S
Mg4371     O4415   2.354       .  S
Mg4371     O4411   2.415       .  S
Mg4371     O4382   2.327       .  S
O4372     Mg4414   2.145       .  S
O4372     Mg4397   2.086       .  S
O4372      C4393   1.227       .  S
O4373      C4404   1.281       .  A
O4373     Mg4397   2.336       .  S
C4374      O4376   1.264       .  A
C4374      O4388   1.251       .  A
O4375      C4403   1.264       .  A
O4375     Mg4377   2.299       .  S
O4376     Mg4408   2.282       .  S
Mg4377     O4383   2.150       .  S
Mg4377     O4391   2.317       .  S
Mg4377     O4379   2.423       .  S
C4378      O4416   1.275       .  A
C4378      O4384   1.287       .  A
O4379      C4386   1.295       .  A
H4380      C4393   1.082       .  S
C4381      O4395   1.240       .  S
C4381      O4396   1.263       .  A
C4381      H4406   1.082       .  S
O4382      C4405   1.275       .  A
O4383     Mg4397   2.140       .  S
O4384     Mg4414   2.370   1_545  S
C4385      O4398   1.273       .  A
C4385      O4390   1.266       .  A
C4386      O4413   1.253       .  A
Mg4387     O4394   2.137       .  S
Mg4387     O4395   2.209       .  S
Mg4387     O4388   2.211       .  S
Mg4387     O4389   2.263       .  S
Mg4387     O4416   2.251   1_565  S
O4389      C4393   1.257       .  A
O4390     Mg4397   2.261       .  S
O4391      C4410   1.288       .  A
O4392      C4412   1.253       .  A
O4392     Mg4408   2.196       .  S
O4394     Mg4408   2.211       .  S
O4394      C4405   1.239       .  S
O4395     Mg4414   2.045       .  S
O4396     Mg4408   2.227       .  S
Mg4397     O4413   2.169       .  S
O4398     Mg4414   2.232       .  S
H4399      C4404   1.082       .  S
O4400     Mg4408   2.140       .  S
O4400      C4403   1.230       .  S
H4401      C4403   1.081       .  S
H4402      C4405   1.081       .  S
O4407     Mg4414   2.313       .  S
C4410      O4415   1.281       .  A
O4411      C4412   1.280       .  A
O4417     Mg4419   2.235       .  S
O4417     Mg4425   2.204       .  S
O4417      C4452   1.244       .  S
C4418      O4431   1.239       .  S
C4418      O4455   1.273       .  A
C4418      H4457   1.081       .  S
Mg4419     O4448   2.114       .  S
Mg4419     O4463   2.353       .  S
Mg4419     O4459   2.416       .  S
Mg4419     O4430   2.327       .  S
O4420     Mg4462   2.146       .  S
O4420     Mg4445   2.087       .  S
O4420      C4441   1.227       .  S
O4421      C4452   1.281       .  A
O4421     Mg4445   2.336       .  S
C4422      O4424   1.264       .  A
C4422      O4436   1.251       .  A
O4423      C4451   1.264       .  A
O4423     Mg4425   2.299       .  S
O4424     Mg4456   2.281       .  S
Mg4425     O4431   2.149       .  S
Mg4425     O4439   2.316       .  S
Mg4425     O4427   2.423       .  S
C4426      O4464   1.275       .  A
C4426      O4432   1.287       .  A
C4426      C4474   1.471       .  S
O4427      C4434   1.295       .  A
H4428      C4441   1.082       .  S
C4429      O4443   1.240       .  S
C4429      O4444   1.263       .  A
C4429      H4454   1.082       .  S
O4430      C4453   1.275       .  A
O4431     Mg4445   2.141       .  S
O4432     Mg4462   2.370       .  S
C4433      O4446   1.273       .  A
C4433      O4438   1.265       .  A
C4434      O4461   1.253       .  A
Mg4435     O4442   2.137       .  S
Mg4435     O4443   2.208       .  S
Mg4435     O4436   2.213       .  S
Mg4435     O4437   2.263       .  S
Mg4435     O4464   2.253       .  S
O4437      C4441   1.257       .  A
O4438     Mg4445   2.259       .  S
O4439      C4458   1.288       .  A
O4440      C4460   1.253       .  A
O4440     Mg4456   2.195       .  S
O4442     Mg4456   2.211       .  S
O4442      C4453   1.239       .  S
O4443     Mg4462   2.044       .  S
O4444     Mg4456   2.227       .  S
Mg4445     O4461   2.170       .  S
O4446     Mg4462   2.232       .  S
H4447      C4452   1.082       .  S
O4448     Mg4456   2.141       .  S
O4448      C4451   1.230       .  S
H4449      C4451   1.081       .  S
H4450      C4453   1.081       .  S
O4455     Mg4462   2.313       .  S
C4458      O4463   1.281       .  A
O4459      C4460   1.280       .  A
O4465     Mg4467   2.235       .  S
O4465     Mg4473   2.204       .  S
O4465      C4500   1.245       .  S
C4466      O4479   1.239       .  S
C4466      O4503   1.273       .  A
C4466      H4505   1.081       .  S
Mg4467     O4496   2.115       .  S
Mg4467     O4511   2.354       .  S
Mg4467     O4507   2.415       .  S
Mg4467     O4478   2.327       .  S
O4468     Mg4510   2.146       .  S
O4468     Mg4493   2.087       .  S
O4468      C4489   1.227       .  S
O4469      C4500   1.281       .  A
O4469     Mg4493   2.336       .  S
C4470      O4472   1.264       .  A
C4470      O4484   1.251       .  A
O4471      C4499   1.264       .  A
O4471     Mg4473   2.299       .  S
O4472     Mg4504   2.282       .  S
Mg4473     O4479   2.150       .  S
Mg4473     O4487   2.318       .  S
Mg4473     O4475   2.423       .  S
C4474      O4512   1.275       .  A
C4474      O4480   1.287       .  A
O4475      C4482   1.295       .  A
H4476      C4489   1.082       .  S
C4477      O4491   1.240       .  S
C4477      O4492   1.263       .  A
C4477      H4502   1.082       .  S
O4478      C4501   1.275       .  A
O4479     Mg4493   2.141       .  S
O4480     Mg4510   2.369       .  S
C4481      O4494   1.272       .  A
C4481      O4486   1.266       .  A
C4482      O4509   1.253       .  A
Mg4483     O4490   2.138       .  S
Mg4483     O4491   2.208       .  S
Mg4483     O4484   2.212       .  S
Mg4483     O4485   2.263       .  S
Mg4483     O4512   2.254       .  S
O4485      C4489   1.257       .  A
O4486     Mg4493   2.261       .  S
O4487      C4506   1.288       .  A
O4488      C4508   1.253       .  A
O4488     Mg4504   2.196       .  S
O4490     Mg4504   2.211       .  S
O4490      C4501   1.239       .  S
O4491     Mg4510   2.044       .  S
O4492     Mg4504   2.227       .  S
Mg4493     O4509   2.169       .  S
O4494     Mg4510   2.231       .  S
H4495      C4500   1.082       .  S
O4496     Mg4504   2.141       .  S
O4496      C4499   1.230       .  S
H4497      C4499   1.081       .  S
H4498      C4501   1.081       .  S
O4503     Mg4510   2.313       .  S
C4506      O4511   1.281       .  A
O4507      C4508   1.280       .  A
O4513     Mg4515   2.238       .  S
O4513     Mg4521   2.204       .  S
O4513      C4548   1.245       .  S
C4514      O4527   1.239       .  S
C4514      O4551   1.273       .  A
C4514      H4553   1.081       .  S
Mg4515     O4544   2.114       .  S
Mg4515     O4559   2.354       .  S
Mg4515     O4555   2.419       .  S
Mg4515     O4526   2.326       .  S
O4516     Mg4558   2.144       .  S
O4516     Mg4541   2.085       .  S
O4516      C4537   1.227       .  S
O4517      C4548   1.281       .  A
O4517     Mg4541   2.337       .  S
C4518      O4520   1.264       .  A
C4518      O4532   1.251       .  A
O4519      C4547   1.264       .  A
O4519     Mg4521   2.299       .  S
O4520     Mg4552   2.282       .  S
Mg4521     O4527   2.150       .  S
Mg4521     O4535   2.318       .  S
Mg4521     O4523   2.426       .  S
C4522      O4560   1.274       .  A
C4522      O4528   1.287       .  A
C4522      C4570   1.469   1_455  S
O4523      C4530   1.296       .  A
H4524      C4537   1.082       .  S
C4525      O4539   1.240       .  S
C4525      O4540   1.263       .  A
C4525      H4550   1.082       .  S
O4526      C4549   1.275       .  A
O4527     Mg4541   2.140       .  S
O4528     Mg4558   2.368       .  S
C4529      O4542   1.273       .  A
C4529      O4534   1.266       .  A
C4530      O4557   1.253       .  A
Mg4531     O4538   2.136       .  S
Mg4531     O4539   2.209       .  S
Mg4531     O4532   2.211       .  S
Mg4531     O4533   2.263       .  S
Mg4531     O4560   2.250       .  S
O4533      C4537   1.257       .  A
O4534     Mg4541   2.262       .  S
O4535      C4554   1.288       .  A
O4536      C4556   1.253       .  A
O4536     Mg4552   2.197       .  S
O4538     Mg4552   2.211       .  S
O4538      C4549   1.239       .  S
O4539     Mg4558   2.045       .  S
O4540     Mg4552   2.227       .  S
Mg4541     O4557   2.167       .  S
O4542     Mg4558   2.232       .  S
H4543      C4548   1.082       .  S
O4544     Mg4552   2.141       .  S
O4544      C4547   1.230       .  S
H4545      C4547   1.081       .  S
H4546      C4549   1.081       .  S
O4551     Mg4558   2.313       .  S
C4554      O4559   1.281       .  A
O4555      C4556   1.281       .  A
O4561     Mg4563   2.235       .  S
O4561     Mg4569   2.204       .  S
O4561      C4596   1.244       .  S
C4562      O4575   1.239       .  S
C4562      O4599   1.273       .  A
C4562      H4601   1.081       .  S
Mg4563     O4592   2.114       .  S
Mg4563     O4607   2.351       .  S
Mg4563     O4603   2.415       .  S
Mg4563     O4574   2.327       .  S
O4564     Mg4606   2.145       .  S
O4564     Mg4589   2.085       .  S
O4564      C4585   1.227       .  S
O4565      C4596   1.281       .  A
O4565     Mg4589   2.335       .  S
C4566      O4568   1.264       .  A
C4566      O4580   1.251       .  A
O4567      C4595   1.264       .  A
O4567     Mg4569   2.299       .  S
O4568     Mg4600   2.282       .  S
Mg4569     O4575   2.149       .  S
Mg4569     O4583   2.317       .  S
Mg4569     O4571   2.423       .  S
C4570      O4608   1.274       .  A
C4570      O4576   1.287       .  A
O4571      C4578   1.295       .  A
H4572      C4585   1.082       .  S
C4573      O4587   1.240       .  S
C4573      O4588   1.263       .  A
C4573      H4598   1.082       .  S
O4574      C4597   1.275       .  A
O4575     Mg4589   2.141       .  S
O4576     Mg4606   2.367       .  S
C4577      O4590   1.273       .  A
C4577      O4582   1.266       .  A
C4578      O4605   1.253       .  A
Mg4579     O4586   2.136       .  S
Mg4579     O4587   2.209       .  S
Mg4579     O4580   2.212       .  S
Mg4579     O4581   2.263       .  S
Mg4579     O4608   2.250       .  S
O4581      C4585   1.257       .  A
O4582     Mg4589   2.261       .  S
O4583      C4602   1.288       .  A
O4584      C4604   1.253       .  A
O4584     Mg4600   2.197       .  S
O4586     Mg4600   2.211       .  S
O4586      C4597   1.239       .  S
O4587     Mg4606   2.045       .  S
O4588     Mg4600   2.227       .  S
Mg4589     O4605   2.168       .  S
O4590     Mg4606   2.232       .  S
H4591      C4596   1.082       .  S
O4592     Mg4600   2.139       .  S
O4592      C4595   1.230       .  S
H4593      C4595   1.081       .  S
H4594      C4597   1.081       .  S
O4599     Mg4606   2.312       .  S
C4602      O4607   1.281       .  A
O4603      C4604   1.280       .  A
