geometry optimzed in LAMMPS
_audit_creation_date              2020-12-01 
_audit_creation_method            'lammps2cif' 
_symmetry_space_group_name_H-M    'P1' 
_symmetry_Int_Tables_number       1 
_symmetry_cell_setting            triclinic 
loop_ 
_symmetry_equiv_pos_as_xyz 
  x,y,z 
_cell_length_a                    44.02581477 
_cell_length_b                    43.22524308040173 
_cell_length_c                    43.79758269468102 
_cell_angle_alpha                 89.97057721832267 
_cell_angle_beta                  90.01356419024364 
_cell_angle_gamma                 90.08111761666345 
loop_ 
_atom_site_label 
_atom_site_type_symbol 
_atom_site_fract_x 
_atom_site_fract_y 
_atom_site_fract_z 
_atom_site_charge 
Fe1        Fe  0.76091751  0.82681474  0.61534918     1.65800
Fe2        Fe  0.71836585  0.85779157  0.55892929     1.73200
Fe3        Fe  0.76919664  0.79972939  0.54299063     1.54400
O4          O  0.81208264  0.80497443  0.56369775    -0.82200
O5          O  0.69508904  0.82456477  0.53523405    -0.80500
O6          O  0.80581966  0.83415809  0.60533011    -0.84700
O7          O  0.76690346  0.77982931  0.61607884    -0.79600
O8          O  0.77981876  0.83547111  0.51315861    -0.81300
O9          O  0.68963234  0.84811629  0.59583541    -0.84100
C10         C  0.76304140  0.75747324  0.59789735     0.96700
C11         C  0.82271396  0.82014392  0.58638236     1.04100
O12         O  0.74957853  0.82824699  0.57220291    -1.13100
O13         O  0.73736788  0.89509564  0.58129117    -0.75500
O14         O  0.75598346  0.87342197  0.62307010    -0.79000
O15         O  0.76033100  0.76097629  0.56931769    -0.79700
C16         C  0.74760739  0.89703013  0.60824128     0.95600
O17         O  0.71683733  0.81889790  0.62774389    -0.77600
O18         O  0.74310711  0.87029835  0.52045353    -0.82800
C19         C  0.70191898  0.80076906  0.51986905     0.98200
C20         C  0.76620752  0.86039236  0.50591646     1.04100
O21         O  0.72887467  0.79004009  0.51914546    -0.78500
C22         C  0.69180196  0.83041405  0.61901294     1.02400
Fe23       Fe  0.81222522  0.89105635  0.27039996     1.65800
Fe24       Fe  0.78309425  0.96121789  0.28910148     1.73200
Fe25       Fe  0.83942670  0.95526844  0.23498853     1.54400
O26         O  0.87778493  0.93260915  0.25130399    -0.82200
O27         O  0.77098828  0.98864656  0.25189941    -0.80500
O28         O  0.85837943  0.88692652  0.26396913    -0.84700
O29         O  0.80469307  0.88391267  0.22460598    -0.79600
O30         O  0.84924347  0.99322127  0.26321859    -0.81300
O31         O  0.74589952  0.93390642  0.27952040    -0.84100
C32         C  0.81744648  0.89553988  0.20129090     0.96700
C33         C  0.88087792  0.90400742  0.25742111     1.04100
O34         O  0.81175141  0.93603224  0.26499689    -1.13100
O35         O  0.79165992  0.93641709  0.32922771    -0.75500
O36         O  0.81914069  0.89485468  0.31694702    -0.79000
O37         O  0.83317617  0.92028142  0.20243417    -0.79700
C38         C  0.80667769  0.91231917  0.33669246     0.95600
O39         O  0.76623238  0.88704846  0.27644805    -0.77600
O40         O  0.81607458  0.99230186  0.30165941    -0.82800
C41         C  0.78027440  0.99216204  0.22456081     0.98200
C42         C  0.83855205  0.00434142  0.28796924     1.04100
O43         O  0.80422980  0.97925883  0.21461182    -0.78500
C44         C  0.74350301  0.90484633  0.27746364     1.02400
Fe45       Fe  0.09919085  0.78224487  0.67009150     1.65800
Fe46       Fe  0.02822236  0.78979759  0.69832431     1.73200
Fe47       Fe  0.04523101  0.73206044  0.64802637     1.54400
O48         O  0.06366097  0.74799150  0.60787889    -0.82200
O49         O  0.00534045  0.74954459  0.71180308    -0.80500
O50         O  0.10606244  0.76938137  0.62510607    -0.84700
O51         O  0.11428422  0.73999868  0.68462299    -0.79600
O52         O  0.00407270  0.75229463  0.63581076    -0.81300
O53         O  0.05576250  0.78481681  0.73628935    -0.84100
C54         C  0.10745165  0.71291263  0.67577467     0.96700
C55         C  0.09060283  0.75732638  0.60375308     1.04100
O56         O  0.05728109  0.76814916  0.67185659    -1.13100
O57         O  0.04773621  0.83311655  0.68907925    -0.75500
O58         O  0.08567990  0.82545234  0.65616941    -0.79000
O59         O  0.08469886  0.70744274  0.65857492    -0.79700
C60         C  0.06831327  0.84332643  0.67114301     0.95600
O61         O  0.10032008  0.79616570  0.71512415    -0.77600
O62         O  0.99802993  0.79593136  0.66252311    -0.82800
C63         C  0.00895504  0.72092624  0.70598872     0.98200
C64         C  0.98947185  0.77701970  0.64192066     1.04100
O65         O  0.02631941  0.71154642  0.68503847    -0.78500
C66         C  0.08377965  0.79133905  0.73834972     1.02400
Fe67       Fe  0.21129825  0.17601255  0.37712561     1.65800
Fe68       Fe  0.20373370  0.21406299  0.44456361     1.73200
Fe69       Fe  0.25697526  0.15804093  0.43480010     1.54400
O70         O  0.24944798  0.12077706  0.40539142    -0.82200
O71         O  0.24469206  0.23252824  0.46044798    -0.80500
O72         O  0.20530236  0.12931909  0.38329554    -0.84700
O73         O  0.25538835  0.16887966  0.36364677    -0.79600
O74         O  0.22749457  0.13944629  0.46715722    -0.81300
O75         O  0.20412238  0.24738201  0.41069068    -0.84100
C76         C  0.27950271  0.18060403  0.37441353     0.96700
C77         C  0.22794180  0.11203675  0.38803598     1.04100
O78         O  0.22344156  0.18284286  0.41912804    -1.13100
O79         O  0.15992604  0.20040784  0.43209430    -0.75500
O80         O  0.16611112  0.18149631  0.38533214    -0.79000
O81         O  0.28565063  0.17897958  0.40279682    -0.79700
C82         C  0.14929052  0.18967273  0.40725426     0.95600
O83         O  0.21651778  0.22222717  0.36778114    -0.77600
O84         O  0.20170405  0.18258127  0.47969045    -0.82800
C85         C  0.26814081  0.21862716  0.47019097     0.98200
C86         C  0.20836210  0.15414960  0.48377615     1.04100
O87         O  0.27201787  0.18996449  0.46608392    -0.78500
C88         C  0.21117736  0.24693308  0.38254223     1.02400
Fe89       Fe  0.17730261  0.11245399  0.69634863     1.65800
Fe90       Fe  0.15046715  0.06463415  0.75139318     1.73200
Fe91       Fe  0.19625921  0.03753254  0.69424202     1.54400
O92         O  0.18797381  0.05432903  0.65092263    -0.82200
O93         O  0.18416389  0.03894247  0.77223620    -0.80500
O94         O  0.16004102  0.09689420  0.65558207    -0.84700
O95         O  0.22069723  0.10640736  0.68028739    -0.79600
O96         O  0.15679834  0.01180894  0.69162230    -0.81300
O97         O  0.16914696  0.10342535  0.77231752    -0.84100
C98         C  0.24222664  0.08764632  0.68500576     0.96700
C99         C  0.17232593  0.07601256  0.63934434     1.04100
O100        O  0.17439042  0.07134795  0.71420254    -1.13100
O101        O  0.11307177  0.09002009  0.73650685    -0.75500
O102        O  0.13482107  0.12685696  0.70908239    -0.79000
O103        O  0.23767358  0.06083762  0.69589980    -0.79700
C104        C  0.11213086  0.11611849  0.72320833     0.95600
O105        O  0.19502780  0.12919834  0.73634306    -0.77600
O106        O  0.13051931  0.02484626  0.73352120    -0.82800
C107        C  0.20335647  0.01964646  0.76218517     0.98200
C108        C  0.13468340  0.00791213  0.71000389     1.04100
O109        O  0.20819343  0.01594909  0.73398236    -0.78500
C110        C  0.18768385  0.12455695  0.76407371     1.02400
Fe111      Fe  0.87833491  0.23825397  0.32493994     1.65800
Fe112      Fe  0.93647607  0.28567621  0.34297989     1.73200
Fe113      Fe  0.94788760  0.22641180  0.29273452     1.54400
O114        O  0.93281922  0.18363593  0.30685060    -0.82200
O115        O  0.96613947  0.30087977  0.30943617    -0.80500
O116        O  0.88504431  0.19078446  0.32119719    -0.84700
O117        O  0.87213636  0.24165764  0.27881149    -0.79600
O118        O  0.98152405  0.22405400  0.32641468    -0.81300
O119        O  0.90418668  0.31487118  0.32471593    -0.84100
C120        C  0.88809093  0.23486005  0.25559397     0.96700
C121        C  0.90697137  0.17313700  0.31417023     1.04100
O122        O  0.92109717  0.24985333  0.32015368    -1.13100
O123        O  0.90867512  0.27715698  0.38056136    -0.75500
O124        O  0.88143325  0.23479161  0.37174410    -0.79000
O125        O  0.91597116  0.22689091  0.25727090    -0.79700
C126        C  0.88984541  0.25657306  0.38925361     0.95600
O127        O  0.86407581  0.28376983  0.32908719    -0.77600
O128        O  0.96980091  0.25886809  0.36246499    -0.82800
C129        C  0.97484605  0.29145515  0.28348192     0.98200
C130        C  0.98612501  0.23685894  0.35235654     1.04100
O131        O  0.96745763  0.26510558  0.27330378    -0.78500
C132        C  0.87576528  0.31046708  0.32593990     1.02400
Fe133      Fe  0.70620922  0.32983761  0.60916454     1.65800
Fe134      Fe  0.70195421  0.29512215  0.53946614     1.73200
Fe135      Fe  0.75293602  0.35337569  0.55272339     1.54400
O136        O  0.74234269  0.38980058  0.58218073    -0.82200
O137        O  0.74316303  0.27962833  0.52306474    -0.80500
O138        O  0.70051302  0.37709401  0.60707007    -0.84700
O139        O  0.75011702  0.33544683  0.62505760    -0.79600
O140        O  0.72455528  0.37076415  0.51884993    -0.81300
O141        O  0.70356689  0.25949314  0.57139048    -0.84100
C142        C  0.77696707  0.33517052  0.61426379     0.96700
C143        C  0.72187433  0.39597325  0.60171437     1.04100
O144        O  0.72015241  0.32599144  0.56702581    -1.13100
O145        O  0.65782894  0.30525592  0.55173840    -0.75500
O146        O  0.66060618  0.32446862  0.59871252    -0.79000
O147        O  0.78253411  0.33671391  0.58578170    -0.79700
C148        C  0.64532460  0.31477255  0.57603961     0.95600
O149        O  0.71107440  0.28327824  0.61604067    -0.77600
O150        O  0.69844786  0.32821543  0.50536371    -0.82800
C151        C  0.76674420  0.29413658  0.51478292     0.98200
C152        C  0.70610256  0.35643767  0.50126474     1.04100
O153        O  0.77123898  0.32213072  0.52206472    -0.78500
C154        C  0.70835379  0.25898010  0.60002946     1.02400
Fe155      Fe  0.67697153  0.39665172  0.28655116     1.65800
Fe156      Fe  0.64609201  0.44021407  0.23071412     1.73200
Fe157      Fe  0.69549283  0.47143957  0.28216288     1.54400
O158        O  0.69208657  0.45653531  0.32784521    -0.82200
O159        O  0.67860668  0.46250819  0.20530098    -0.80500
O160        O  0.66237213  0.41500499  0.32686694    -0.84700
O161        O  0.72174401  0.40436151  0.29860520    -0.79600
O162        O  0.65582555  0.49619825  0.28697351    -0.81300
O163        O  0.66211069  0.39917947  0.21168762    -0.84100
C164        C  0.74241633  0.42272716  0.28965725     0.96700
C165        C  0.67713572  0.43533271  0.34153083     1.04100
O166        O  0.67260861  0.43627521  0.26626216    -1.13100
O167        O  0.60999241  0.41801336  0.25141851    -0.75500
O168        O  0.63338725  0.38151902  0.27789602    -0.79000
O169        O  0.73644803  0.44854565  0.27735895    -0.79700
C170        C  0.60965952  0.39256247  0.26576414     0.95600
O171        O  0.69197235  0.37733537  0.24691417    -0.77600
O172        O  0.62836516  0.48194255  0.24621542    -0.82800
C173        C  0.69731100  0.48368434  0.21200828     0.98200
C174        C  0.63322333  0.49955259  0.26907694     1.04100
O175        O  0.70325941  0.49094911  0.23948624    -0.78500
C176        C  0.68218885  0.37953440  0.21971918     1.02400
Fe177      Fe  0.31385812  0.61713470  0.71773791     1.65800
Fe178      Fe  0.27882250  0.54644446  0.71903255     1.73200
Fe179      Fe  0.34190984  0.56071044  0.76275686     1.54400
O180        O  0.37640994  0.58926916  0.74696867    -0.82200
O181        O  0.26886171  0.52953692  0.76270989    -0.80500
O182        O  0.35935813  0.61518487  0.70706477    -0.84700
O183        O  0.32381847  0.63432685  0.76046713    -0.79600
O184        O  0.35505239  0.52531408  0.73361757    -0.81300
O185        O  0.24448290  0.57919827  0.72401812    -0.84100
C186        C  0.32718266  0.62394923  0.78742074     0.96700
C187        C  0.38031211  0.60891398  0.72580410     1.04100
O188        O  0.31132068  0.57466347  0.73302088    -1.13100
O189        O  0.28297584  0.55866979  0.67316435    -0.75500
O190        O  0.30431540  0.60535567  0.67335171    -0.79000
O191        O  0.32975979  0.59524526  0.79339523    -0.79700
C192        C  0.29223065  0.58280537  0.65940505     0.95600
O193        O  0.26880399  0.62459141  0.72656301    -0.77600
O194        O  0.31065504  0.51177621  0.71201348    -0.82800
C195        C  0.28623106  0.52221465  0.78473296     0.98200
C196        C  0.33890351  0.50731375  0.71710200     1.04100
O197        O  0.31370151  0.53070838  0.78551914    -0.78500
C198        C  0.24465367  0.60855279  0.72660686     1.02400
Fe199      Fe  0.37018492  0.28012433  0.66775923     1.65800
Fe200      Fe  0.42693172  0.24039735  0.63385775     1.73200
Fe201      Fe  0.44076995  0.28078369  0.69909839     1.54400
O202        O  0.42966703  0.32691570  0.69373247    -0.82200
O203        O  0.45828779  0.21745657  0.66077327    -0.80500
O204        O  0.38088017  0.32504123  0.67999534    -0.84700
O205        O  0.36502743  0.26721730  0.71252706    -0.79600
O206        O  0.47540407  0.28708916  0.66770580    -0.81300
O207        O  0.39532877  0.20683845  0.64535365    -0.84100
C208        C  0.38141377  0.27067138  0.73607620     0.96700
C209        C  0.40444263  0.33997912  0.68813081     1.04100
O210        O  0.41261591  0.26734295  0.66692620    -1.13100
O211        O  0.39662415  0.25738795  0.60111671    -0.75500
O212        O  0.36997014  0.29455240  0.62311281    -0.79000
O213        O  0.40953061  0.27713587  0.73460543    -0.79700
C214        C  0.37609511  0.27804978  0.60011488     0.95600
O215        O  0.35485771  0.23644924  0.65531681    -0.77600
O216        O  0.46005368  0.27232453  0.62123512    -0.82800
C217        C  0.46407908  0.21568818  0.68911032     0.98200
C218        C  0.47905865  0.28571404  0.63886853     1.04100
O219        O  0.45469010  0.23586410  0.70793635    -0.78500
C220        C  0.36702709  0.21028942  0.64997785     1.02400
Fe221      Fe  0.60631498  0.72963555  0.31573847     1.65800
Fe222      Fe  0.53568474  0.72225153  0.28505865     1.73200
Fe223      Fe  0.54785271  0.77017150  0.34711357     1.54400
O224        O  0.57369177  0.75358347  0.38358883    -0.82200
O225        O  0.51519104  0.76391098  0.27454038    -0.80500
O226        O  0.61183971  0.72842548  0.36204137    -0.84700
O227        O  0.61834204  0.77511935  0.31418769    -0.79600
O228        O  0.51206735  0.74071231  0.35937824    -0.81300
O229        O  0.56393580  0.73013817  0.24835587    -0.84100
C230        C  0.60679971  0.80060753  0.32260138     0.96700
C231        C  0.59899253  0.73958465  0.38530478     1.04100
O232        O  0.56314979  0.74058658  0.31616620    -1.13100
O233        O  0.55308297  0.67796908  0.29139905    -0.75500
O234        O  0.59674421  0.68327593  0.31695411    -0.79000
O235        O  0.58150144  0.80256396  0.33659332    -0.79700
C236        C  0.57602095  0.66671153  0.30515054     0.95600
O237        O  0.60979600  0.73013408  0.26924880    -0.77600
O238        O  0.50349090  0.71254693  0.31743633    -0.82800
C239        C  0.51086527  0.78879047  0.28920935     0.98200
C240        C  0.49674626  0.72064131  0.34444801     1.04100
O241        O  0.52077856  0.79284416  0.31607454    -0.78500
C242        C  0.59248960  0.73182049  0.24635814     1.02400
Fe243      Fe  0.27122918  0.68155345  0.38219001     1.65800
Fe244      Fe  0.22482045  0.65530436  0.43950626     1.73200
Fe245      Fe  0.27786744  0.71203171  0.45316594     1.54400
O246        O  0.32057289  0.70482240  0.43493300    -0.82200
O247        O  0.20299241  0.68964619  0.46346707    -0.80500
O248        O  0.31662918  0.67554558  0.39330139    -0.84700
O249        O  0.27775335  0.72863411  0.37876314    -0.79600
O250        O  0.28568278  0.67726377  0.48455666    -0.81300
O251        O  0.19700958  0.66627616  0.40245669    -0.84100
C252        C  0.27555208  0.75203949  0.39596050     0.96700
C253        C  0.33249826  0.69024847  0.41280234     1.04100
O254        O  0.25801513  0.68274651  0.42508012    -1.13100
O255        O  0.24091609  0.61631860  0.41754672    -0.75500
O256        O  0.26631265  0.63436175  0.37757188    -0.79000
O257        O  0.27189644  0.74992540  0.42462610    -0.79700
C258        C  0.25414893  0.61227324  0.39216633     0.95600
O259        O  0.22724510  0.68858492  0.36779116    -0.77600
O260        O  0.24878798  0.64214389  0.47855694    -0.82800
C261        C  0.21150938  0.71385387  0.47729781     0.98200
C262        C  0.27174356  0.65282456  0.49289662     1.04100
O263        O  0.23841181  0.72413435  0.47543179    -0.78500
C264        C  0.20108033  0.68076090  0.37743947     1.02400
Fe265      Fe  0.80529550  0.61913448  0.77577979     1.65800
Fe266      Fe  0.84269850  0.56604494  0.73373344     1.73200
Fe267      Fe  0.78819432  0.54254014  0.78525672     1.54400
O268        O  0.79516392  0.56228700  0.82909145    -0.82200
O269        O  0.81264532  0.53901249  0.71011326    -0.80500
O270        O  0.81272074  0.61022939  0.82086612    -0.84700
O271        O  0.75952892  0.61474100  0.78063821    -0.79600
O272        O  0.82593200  0.51442888  0.79247648    -0.81300
O273        O  0.83034067  0.60264964  0.70541888    -0.84100
C274        C  0.73982343  0.59357209  0.78023577     0.96700
C275        C  0.80604203  0.58807519  0.83865399     1.04100
O276        O  0.81208597  0.57563868  0.76507850    -1.13100
O277        O  0.87622569  0.59215636  0.75430818    -0.75500
O278        O  0.85001351  0.63194336  0.77221376    -0.79000
O279        O  0.74664718  0.56510112  0.78045959    -0.79700
C280        C  0.87491424  0.61930968  0.76517245     0.95600
O281        O  0.79694831  0.63088749  0.73135472    -0.77600
O282        O  0.85902050  0.52767552  0.75634724    -0.82800
C283        C  0.79023427  0.52165900  0.71645456     0.98200
C284        C  0.85053156  0.51002778  0.77787851     1.04100
O285        O  0.77895952  0.51998342  0.74336497    -0.78500
C286        C  0.81043814  0.62387136  0.70678550     1.02400
Fe287      Fe  0.87823634  0.27445531  0.81178209     1.65800
Fe288      Fe  0.94760198  0.28552938  0.78165726     1.73200
Fe289      Fe  0.93640833  0.23208172  0.83810832     1.54400
O290        O  0.91772664  0.25207894  0.87624642    -0.82200
O291        O  0.97248028  0.24532122  0.77068296    -0.80500
O292        O  0.87260944  0.26415940  0.85753581    -0.84700
O293        O  0.86709607  0.22989345  0.80029364    -0.79600
O294        O  0.97660293  0.25625746  0.84751632    -0.81300
O295        O  0.91979792  0.27705889  0.74436303    -0.84100
C296        C  0.87466233  0.20523195  0.81418484     0.96700
C297        C  0.88994727  0.25842089  0.87993257     1.04100
O298        O  0.92107465  0.26397143  0.81050044    -1.13100
O299        O  0.92579578  0.32841476  0.78998410    -0.75500
O300        O  0.88830423  0.31919376  0.82320790    -0.79000
O301        O  0.89780451  0.20385573  0.83179350    -0.79700
C302        C  0.90507905  0.33782811  0.80836067     0.95600
O303        O  0.87568826  0.28719645  0.76640793    -0.77600
O304        O  0.97802378  0.29633654  0.81544568    -0.82800
C305        C  0.97236089  0.21737247  0.78030420     0.98200
C306        C  0.98875382  0.28120138  0.83780458     1.04100
O307        O  0.95669121  0.20886586  0.80308056    -0.78500
C308        C  0.89216553  0.28499196  0.74278824     1.02400
Fe309      Fe  0.77209394  0.69177475  0.11447607     1.65800
Fe310      Fe  0.78789517  0.70980223  0.04009466     1.73200
Fe311      Fe  0.72980874  0.65942272  0.05776806     1.54400
O312        O  0.74350883  0.62270173  0.08495510    -0.82200
O313        O  0.75012584  0.72336470  0.01524672    -0.80500
O314        O  0.76550101  0.64583392  0.12447344    -0.84700
O315        O  0.72755284  0.70223910  0.12432188    -0.79600
O316        O  0.75400055  0.64047719  0.02227331    -0.81300
O317        O  0.78531537  0.75201014  0.06323513    -0.84100
C318        C  0.70239085  0.69225918  0.11418118     0.96700
C319        C  0.75522357  0.62186228  0.11143498     1.04100
O320        O  0.76340836  0.68690417  0.07066419    -1.13100
O321        O  0.82852023  0.69934275  0.06177887    -0.75500
O322        O  0.81752684  0.68230164  0.10867954    -0.79000
O323        O  0.70042023  0.67472089  0.09109515    -0.79700
C324        C  0.83641965  0.68867212  0.08768950     0.95600
O325        O  0.77964493  0.73845257  0.11187859    -0.77600
O326        O  0.79352961  0.67099482  0.01222651    -0.82800
C327        C  0.72237978  0.71525289  0.01402852     0.98200
C328        C  0.77750585  0.64703205  0.00683992     1.04100
O329        O  0.71182339  0.69279051  0.02943763    -0.78500
C330        C  0.78310394  0.75871179  0.09137535     1.02400
Fe331      Fe  0.16985591  0.39523924  0.20941871     1.65800
Fe332      Fe  0.20214076  0.46669162  0.20136566     1.73200
Fe333      Fe  0.14935398  0.45353609  0.25762342     1.54400
O334        O  0.11001495  0.43145362  0.24452437    -0.82200
O335        O  0.21681898  0.48907589  0.24034226    -0.80500
O336        O  0.12311712  0.39226816  0.21458244    -0.84700
O337        O  0.17607627  0.37943506  0.25308046    -0.79600
O338        O  0.13551192  0.49194525  0.23327427    -0.81300
O339        O  0.23855075  0.43675984  0.20635818    -0.84100
C340        C  0.17136078  0.38976942  0.27977587     0.96700
C341        C  0.10351070  0.40692687  0.23009009     1.04100
O342        O  0.17362715  0.43853956  0.22276319    -1.13100
O343        O  0.19320420  0.44852691  0.15868722    -0.75500
O344        O  0.16408441  0.40678474  0.16405952    -0.79000
O345        O  0.16082328  0.41654429  0.28506991    -0.79700
C346        C  0.17821891  0.42615897  0.14748406     0.95600
O347        O  0.21600679  0.39056496  0.20375110    -0.77600
O348        O  0.16810284  0.49914206  0.19467476    -0.82800
C349        C  0.20856616  0.49053973  0.26799820     0.98200
C350        C  0.14429240  0.50647765  0.20955780     1.04100
O351        O  0.18475024  0.47730924  0.27752123    -0.78500
C352        C  0.23954044  0.40743234  0.20524766     1.02400
Fe353      Fe  0.11031432  0.74247211  0.17168318     1.65800
Fe354      Fe  0.04847076  0.78379617  0.14911332     1.73200
Fe355      Fe  0.04037550  0.72210942  0.19881905     1.54400
O356        O  0.06263659  0.68181833  0.18528337    -0.82200
O357        O  0.01999975  0.79758045  0.18368896    -0.80500
O358        O  0.10638682  0.69597281  0.16390952    -0.84700
O359        O  0.11357909  0.73600240  0.21758042    -0.79600
O360        O  0.00944463  0.71577348  0.16338566    -0.81300
O361        O  0.07912182  0.81606947  0.16526065    -0.84100
C362        C  0.09661068  0.73062203  0.24023751     0.96700
C363        C  0.08767490  0.67535560  0.17221831     1.04100
O364        O  0.06624754  0.74936386  0.17314380    -1.13100
O365        O  0.07430673  0.77581083  0.11038965    -0.75500
O366        O  0.11395880  0.74825746  0.12547740    -0.79000
O367        O  0.06827187  0.72551195  0.23749700    -0.79700
C368        C  0.09914052  0.76209378  0.10490178     0.95600
O369        O  0.11895528  0.78807161  0.18017597    -0.77600
O370        O  0.01561665  0.75539720  0.13112016    -0.82800
C371        C  0.00865357  0.78585805  0.20760380     0.98200
C372        C  0.00224682  0.73068598  0.13931802     1.04100
O373        O  0.01456302  0.75840039  0.21615555    -0.78500
C374        C  0.10518324  0.81361963  0.17729169     1.02400
Fe375      Fe  0.21446879  0.31523692  0.88204556     1.65800
Fe376      Fe  0.25919689  0.34138418  0.94011863     1.73200
Fe377      Fe  0.20675288  0.28318250  0.95249651     1.54400
O378        O  0.16365225  0.29035549  0.93476756    -0.82200
O379        O  0.27829961  0.30938982  0.96979833    -0.80500
O380        O  0.16862839  0.31637821  0.89129915    -0.84700
O381        O  0.21383291  0.26829122  0.87808211    -0.79600
O382        O  0.19884592  0.31773653  0.98356598    -0.81300
O383        O  0.28972746  0.32612507  0.90690596    -0.84100
C384        C  0.21413743  0.24446379  0.89486024     0.96700
C385        C  0.15230207  0.30342557  0.91145759     1.04100
O386        O  0.22678868  0.31334929  0.92501101    -1.13100
O387        O  0.24764407  0.37902601  0.91246309    -0.75500
O388        O  0.21357098  0.36250500  0.87903906    -0.79000
O389        O  0.21296459  0.24576065  0.92375199    -0.79700
C390        C  0.23016913  0.38368991  0.88982877     0.95600
O391        O  0.25896040  0.31333930  0.86822552    -0.77600
O392        O  0.23037237  0.35759823  0.97460599    -0.82800
C393        C  0.27116221  0.28323008  0.98075832     0.98200
C394        C  0.20870971  0.34477300  0.98950293     1.04100
O395        O  0.24600403  0.27038255  0.97482530    -0.78500
C396        C  0.28526393  0.31616099  0.87986419     1.02400
Fe397      Fe  0.60539542  0.77084175  0.82158590     1.65800
Fe398      Fe  0.54747676  0.72913510  0.85197348     1.73200
Fe399      Fe  0.53292308  0.78388556  0.79635897     1.54400
O400        O  0.55308688  0.82691860  0.80562145    -0.82200
O401        O  0.52121352  0.70885919  0.81914484    -0.80500
O402        O  0.59792523  0.81745194  0.82776198    -0.84700
O403        O  0.60593525  0.77597750  0.77523469    -0.79600
O404        O  0.50277267  0.79157945  0.83178836    -0.81300
O405        O  0.58153702  0.69803584  0.84015981    -0.84100
C406        C  0.58739197  0.77800528  0.75332201     0.96700
C407        C  0.57771998  0.83608220  0.81816241     1.04100
O408        O  0.56180687  0.76143065  0.82337370    -1.13100
O409        O  0.57227898  0.74476031  0.88876404    -0.75500
O410        O  0.61287231  0.76651434  0.86785897    -0.79000
O411        O  0.55892801  0.77953512  0.75714118    -0.79700
C412        C  0.59864816  0.75629215  0.89088606     0.95600
O413        O  0.61629826  0.72511687  0.81443490    -0.77600
O414        O  0.51155503  0.75565793  0.86720576    -0.82800
C415        C  0.50823638  0.71617695  0.79436701     0.98200
C416        C  0.49664630  0.77862597  0.85711520     1.04100
O417        O  0.50989698  0.74338337  0.78321161    -0.78500
C418        C  0.60564549  0.69968987  0.82427434     1.02400
Fe419      Fe  0.27384483  0.82729204  0.87819336     1.65800
Fe420      Fe  0.28081654  0.80389389  0.95070244     1.73200
Fe421      Fe  0.22054686  0.84823685  0.92959278     1.54400
O422        O  0.23427313  0.88882431  0.90944128    -0.82200
O423        O  0.24227557  0.79048438  0.97473805    -0.80500
O424        O  0.25931312  0.87172108  0.86892281    -0.84700
O425        O  0.23410335  0.80928257  0.86213730    -0.79600
O426        O  0.23851110  0.86483690  0.97076461    -0.81300
O427        O  0.27824827  0.76308818  0.92609025    -0.84100
C428        C  0.20655083  0.81607869  0.86729724     0.96700
C429        C  0.24604915  0.89318480  0.88344685     1.04100
O430        O  0.25823732  0.82664835  0.91961340    -1.13100
O431        O  0.32322328  0.81331171  0.93096931    -0.75500
O432        O  0.31469700  0.84501002  0.89207091    -0.79000
O433        O  0.19852743  0.83333278  0.88955745    -0.79700
C434        C  0.33283152  0.83061955  0.90945115     0.95600
O435        O  0.29070075  0.78265489  0.88080969    -0.77600
O436        O  0.28427685  0.84325460  0.97710533    -0.82800
C437        C  0.21374376  0.79302612  0.97107715     0.98200
C438        C  0.26379298  0.86248011  0.98495773     1.04100
O439        O  0.20231230  0.81040542  0.95089980    -0.78500
C440        C  0.28774695  0.75984635  0.89891312     1.02400
Fe441      Fe  0.66074540  0.12032525  0.77510148     1.65800
Fe442      Fe  0.68657513  0.04782139  0.79264369     1.73200
Fe443      Fe  0.63835129  0.05916737  0.73137772     1.54400
O444        O  0.60020885  0.08597311  0.73998478    -0.82200
O445        O  0.70477027  0.02425478  0.75615374    -0.80500
O446        O  0.61417682  0.12329664  0.77215745    -0.84700
O447        O  0.66587344  0.13217181  0.73005617    -0.79600
O448        O  0.62004360  0.02374350  0.75738018    -0.81300
O449        O  0.72475944  0.07644489  0.79142799    -0.84100
C450        C  0.66374262  0.11930432  0.70417303     0.96700
C451        C  0.59442160  0.11003504  0.75561750     1.04100
O452        O  0.66170068  0.07566160  0.76654647    -1.13100
O453        O  0.67279656  0.06772733  0.83320110    -0.75500
O454        O  0.65649506  0.11499615  0.82154866    -0.79000
O455        O  0.65423202  0.09185841  0.70078408    -0.79700
C456        C  0.66311495  0.09423851  0.84085864     0.95600
O457        O  0.70713599  0.12288185  0.77812900    -0.77600
O458        O  0.65165824  0.01544648  0.79645212    -0.82800
C459        C  0.69719999  0.01975546  0.72861191     0.98200
C460        C  0.62814076  0.00849058  0.78088078     1.04100
O461        O  0.67337817  0.03120581  0.71696600    -0.78500
C462        C  0.72878110  0.10473375  0.78457389     1.02400
Fe463      Fe  0.38269028  0.22764376  0.17655313     1.65800
Fe464      Fe  0.45237038  0.22285435  0.20852497     1.73200
Fe465      Fe  0.43992990  0.27200853  0.14829097     1.54400
O466        O  0.41983839  0.25162322  0.11063124    -0.82200
O467        O  0.47391733  0.26420973  0.21838351    -0.80500
O468        O  0.37729441  0.23238196  0.12990607    -0.84700
O469        O  0.36888717  0.27244364  0.18254785    -0.79600
O470        O  0.47975492  0.24716263  0.13891602    -0.81300
O471        O  0.42385909  0.23186173  0.24465766    -0.84100
C472        C  0.37767614  0.29780139  0.17075463     0.96700
C473        C  0.39292431  0.24165847  0.10739596     1.04100
O474        O  0.42519407  0.24081931  0.17757153    -1.13100
O475        O  0.43405948  0.17884418  0.20288886    -0.75500
O476        O  0.39457594  0.18177851  0.17102840    -0.79000
O477        O  0.40192904  0.30023274  0.15497449    -0.79700
C478        C  0.41349878  0.16614090  0.18665754     0.95600
O479        O  0.37937323  0.22188315  0.22316330    -0.77600
O480        O  0.48415743  0.21222542  0.17621774    -0.82800
C481        C  0.47429543  0.29111675  0.20679879     0.98200
C482        C  0.49340297  0.22447827  0.15158887     1.04100
O483        O  0.46125166  0.29739857  0.18176595    -0.78500
C484        C  0.39563965  0.22693245  0.24653226     1.02400
Fe485      Fe  0.71835407  0.18725749  0.10896742     1.65800
Fe486      Fe  0.76567246  0.16197100  0.05255709     1.73200
Fe487      Fe  0.70970595  0.21538343  0.03690927     1.54400
O488        O  0.66738799  0.20795148  0.05550229    -0.82200
O489        O  0.78489063  0.19585886  0.02536673    -0.80500
O490        O  0.67273381  0.18176540  0.09882629    -0.84700
O491        O  0.71357621  0.23417020  0.11029106    -0.79600
O492        O  0.70281817  0.17867687  0.00767634    -0.81300
O493        O  0.79390294  0.17699140  0.08751218    -0.84100
C494        C  0.71397932  0.25717782  0.09239237     0.96700
C495        C  0.65623979  0.19487942  0.07884165     1.04100
O496        O  0.73124839  0.18805262  0.06607895    -1.13100
O497        O  0.75312879  0.12358004  0.07808122    -0.75500
O498        O  0.72210901  0.14009096  0.11450373    -0.79000
O499        O  0.71471616  0.25452999  0.06356978    -0.79700
C500        C  0.73750926  0.11886610  0.10199967     0.95600
O501        O  0.76224586  0.19381081  0.12372366    -0.77600
O502        O  0.74038540  0.14484293  0.01628466    -0.82800
C503        C  0.77512682  0.21946416  0.01134957     0.98200
C504        C  0.71679388  0.15360966  0.00175305     1.04100
O505        O  0.74797157  0.22852700  0.01368385    -0.78500
C506        C  0.78882484  0.18907341  0.11347925     1.02400
Fe507      Fe  0.31187821  0.88873644  0.21441904     1.65800
Fe508      Fe  0.34809220  0.94538380  0.25293738     1.73200
Fe509      Fe  0.28710362  0.96246546  0.20719789     1.54400
O510        O  0.28782171  0.94082328  0.16409765    -0.82200
O511        O  0.31883652  0.97099048  0.27872660    -0.80500
O512        O  0.31666172  0.89860527  0.16894211    -0.84700
O513        O  0.26536367  0.88981749  0.21157337    -0.79600
O514        O  0.32168813  0.99055734  0.19242506    -0.81300
O515        O  0.33993004  0.90825025  0.28298479    -0.84100
C516        C  0.24483712  0.90905401  0.21837742     0.96700
C517        C  0.30257393  0.91818789  0.15262566     1.04100
O518        O  0.31582939  0.93243275  0.22486239    -1.13100
O519        O  0.38189799  0.92122774  0.23101111    -0.75500
O520        O  0.35760003  0.87882212  0.21652467    -0.79000
O521        O  0.24969162  0.93772810  0.22073809    -0.79700
C522        C  0.38189706  0.89330458  0.22237749     0.95600
O523        O  0.30671348  0.87717009  0.25941352    -0.77600
O524        O  0.35914419  0.98381205  0.22619545    -0.82800
C525        C  0.29556579  0.98735568  0.27363130     0.98200
C526        C  0.34738679  0.99784305  0.20342903     1.04100
O527        O  0.28231497  0.98774877  0.24777299    -0.78500
C528        C  0.32138137  0.88546558  0.28297947     1.02400
C529        C  0.41049143  0.13195545  0.18778805    -0.05800
C530        C  0.42573866  0.11518974  0.21068439    -0.05700
C531        C  0.41914167  0.08403850  0.21578529    -0.23900
C532        C  0.39709064  0.06901434  0.19817071     0.18400
C533        C  0.38317391  0.08490124  0.17365833     0.15600
C534        C  0.39011125  0.11623003  0.16845983    -0.18900
C535        C  0.36112332  0.06974138  0.15607181    -0.20700
C536        C  0.35100717  0.04026133  0.16443647    -0.13300
C537        C  0.36298823  0.02527873  0.19035971     0.03400
C538        C  0.38726103  0.03916522  0.20606091    -0.25400
H539        H  0.44170236  0.12653364  0.22580862     0.08500
H540        H  0.43023505  0.07213675  0.23448936     0.12100
H541        H  0.37841518  0.12872465  0.15050131     0.12000
H542        H  0.35052472  0.08131341  0.13687689     0.11800
H543        H  0.33265441  0.02990280  0.15150594     0.12300
H544        H  0.39693692  0.02784553  0.22588786     0.14300
C545        C  0.62301337  0.19758276  0.08405356    -0.05800
C546        C  0.60534177  0.21721503  0.06546567    -0.05700
C547        C  0.57562321  0.22503072  0.07371626    -0.23900
C548        C  0.56293135  0.21337848  0.10071930     0.18400
C549        C  0.57990924  0.19231800  0.11860151     0.15600
C550        C  0.60964548  0.18443550  0.11011367    -0.18900
C551        C  0.56740903  0.18044777  0.14548235    -0.20700
C552        C  0.53888255  0.19017608  0.15526042    -0.13300
C553        C  0.52209899  0.21214394  0.13848152     0.03400
C554        C  0.53409230  0.22320662  0.11074586    -0.25400
H555        H  0.61495550  0.22780623  0.04523873     0.08500
H556        H  0.56298200  0.24102405  0.05952908     0.12100
H557        H  0.62286408  0.16929043  0.12468800     0.12000
H558        H  0.58002616  0.16420000  0.15941047     0.11800
H559        H  0.53040849  0.18104814  0.17665593     0.12300
H560        H  0.52148242  0.24002346  0.09747393     0.14300
C561        C  0.66241457  0.10265621  0.87354999    -0.05800
C562        C  0.64519154  0.12810729  0.88343183    -0.05700
C563        C  0.65013324  0.14104135  0.91222333    -0.23900
C564        C  0.67293773  0.12922011  0.93126786     0.18400
C565        C  0.68928686  0.10266377  0.92223350     0.15600
C566        C  0.68342484  0.08911612  0.89372436    -0.18900
C567        C  0.71263647  0.09136361  0.94092854    -0.20700
C568        C  0.72086433  0.10724315  0.96746715    -0.13300
C569        C  0.70562281  0.13447887  0.97598999     0.03400
C570        C  0.68088070  0.14464350  0.95826265    -0.25400
H571        H  0.62889658  0.13893209  0.86829456     0.08500
H572        H  0.63729327  0.16131457  0.91886963     0.12100
H573        H  0.69714380  0.06975437  0.88621386     0.12000
H574        H  0.72536645  0.07098764  0.93438245     0.11800
H575        H  0.73981943  0.09870192  0.98077565     0.12300
H576        H  0.66875597  0.16549722  0.96454094     0.14300
C577        C  0.26898456  0.88157869  0.01277096    -0.05800
C578        C  0.24563950  0.90013493  0.02485197    -0.05700
C579        C  0.24879501  0.91413832  0.05352427    -0.23900
C580        C  0.27524638  0.90962758  0.07083019     0.18400
C581        C  0.29947075  0.89243828  0.05818460     0.15600
C582        C  0.29635905  0.87892993  0.02919449    -0.18900
C583        C  0.32579300  0.88745862  0.07545478    -0.20700
C584        C  0.32726656  0.89744696  0.10571019    -0.13300
C585        C  0.30273330  0.91315784  0.11915694     0.03400
C586        C  0.27722756  0.92038941  0.10114506    -0.25400
H587        H  0.22437749  0.90283472  0.01271267     0.08500
H588        H  0.23003259  0.92739289  0.06269340     0.12100
H589        H  0.31471251  0.86494169  0.02021744     0.12000
H590        H  0.34468831  0.87456724  0.06604880     0.11800
H591        H  0.34729655  0.89192413  0.11900744     0.12300
H592        H  0.25813203  0.93236222  0.11131761     0.14300
C593        C  0.58452391  0.86976831  0.82024288    -0.05800
C594        C  0.60703487  0.88034418  0.84056773    -0.05700
C595        C  0.61789357  0.91072169  0.83902500    -0.23900
C596        C  0.60679173  0.93114356  0.81681913     0.18400
C597        C  0.58310366  0.92136365  0.79725472     0.15600
C598        C  0.57182501  0.89088174  0.79933299    -0.18900
C599        C  0.57223147  0.94172761  0.77486926    -0.20700
C600        C  0.58577578  0.97074928  0.77078131    -0.13300
C601        C  0.61043420  0.98020721  0.78907011     0.03400
C602        C  0.62008912  0.96053250  0.81282715    -0.25400
H603        H  0.61709354  0.86472386  0.85704932     0.08500
H604        H  0.63588607  0.91782613  0.85439069     0.12100
H605        H  0.55464528  0.88307176  0.78335811     0.12000
H606        H  0.55400130  0.93476721  0.75972767     0.11800
H607        H  0.57764676  0.98529131  0.75237956     0.12300
H608        H  0.63900489  0.96732746  0.82718667     0.14300
C609        C  0.47009968  0.78979062  0.87489736    -0.05800
C610        C  0.46103225  0.77442001  0.90174850    -0.05700
C611        C  0.43365506  0.78190528  0.91610782    -0.23900
C612        C  0.41472323  0.80479990  0.90382835     0.18400
C613        C  0.42433075  0.82151283  0.87782299     0.15600
C614        C  0.45201826  0.81412722  0.86371944    -0.18900
C615        C  0.40535082  0.84424571  0.86538030    -0.20700
C616        C  0.37630249  0.84894799  0.87729940    -0.13300
C617        C  0.36572405  0.83117427  0.90206356     0.03400
C618        C  0.38565549  0.80999771  0.91602041    -0.25400
H619        H  0.47454415  0.75576108  0.91108642     0.08500
H620        H  0.42676289  0.76896717  0.93614881     0.12100
H621        H  0.45870121  0.82636644  0.84317703     0.12000
H622        H  0.41241820  0.85741645  0.84554798     0.11800
H623        H  0.36154995  0.86543156  0.86605734     0.12300
H624        H  0.37786220  0.79598591  0.93500958     0.14300
C625        C  0.37777817  0.24420039  0.07710328    -0.05800
C626        C  0.39014009  0.26360384  0.05446309    -0.05700
C627        C  0.37249329  0.27334753  0.02966542    -0.23900
C628        C  0.34213693  0.26383267  0.02694113     0.18400
C629        C  0.33022458  0.24239516  0.04817899     0.15600
C630        C  0.34814536  0.23253213  0.07292999    -0.18900
C631        C  0.30000544  0.23255467  0.04530795    -0.20700
C632        C  0.28132349  0.24494152  0.02256615    -0.13300
C633        C  0.29235709  0.26759927  0.00229254     0.03400
C634        C  0.32313598  0.27639165  0.00421154    -0.25400
H635        H  0.41280460  0.27302860  0.05697131     0.08500
H636        H  0.38217134  0.28948870  0.01341251     0.12100
H637        H  0.33825027  0.21743401  0.09003455     0.12000
H638        H  0.29051036  0.21598608  0.06125955     0.11800
H639        H  0.25780374  0.23763274  0.02165020     0.12300
H640        H  0.33208364  0.29359020  0.98858511     0.14300
C641        C  0.21431798  0.89686597  0.22296704    -0.05800
C642        C  0.21017877  0.87250643  0.24369541    -0.05700
C643        C  0.18393128  0.85460587  0.24259389    -0.23900
C644        C  0.16224982  0.86020607  0.21988160     0.18400
C645        C  0.16519528  0.88619774  0.20042431     0.15600
C646        C  0.19105790  0.90497244  0.20268041    -0.18900
C647        C  0.14389291  0.89095886  0.17703770    -0.20700
C648        C  0.12197702  0.86836734  0.17084827    -0.13300
C649        C  0.12107914  0.84120580  0.18832460     0.03400
C650        C  0.13969502  0.83834476  0.21411211    -0.25400
H651        H  0.22811813  0.86619625  0.25944338     0.08500
H652        H  0.18183151  0.83487116  0.25775310     0.12100
H653        H  0.19462247  0.92361362  0.18647738     0.12000
H654        H  0.14566027  0.91087717  0.16210419     0.11800
H655        H  0.10748968  0.87093957  0.15102762     0.12300
H656        H  0.13855389  0.81752940  0.22792010     0.14300
C657        C  0.19304168  0.77699163  0.99249272    -0.05800
C658        C  0.20442359  0.75507467  0.01322391    -0.05700
C659        C  0.18648098  0.74453878  0.03737024    -0.23900
C660        C  0.15708108  0.75623162  0.04151035     0.18400
C661        C  0.14470890  0.77676617  0.01975031     0.15600
C662        C  0.16255654  0.78653672  0.99503129    -0.18900
C663        C  0.11549554  0.78886764  0.02424874    -0.20700
C664        C  0.09966740  0.78259425  0.05123367    -0.13300
C665        C  0.11262499  0.76375605  0.07392706     0.03400
C666        C  0.14075321  0.74942199  0.06812722    -0.25400
H667        H  0.22766917  0.74708340  0.01157649     0.08500
H668        H  0.19619385  0.72855214  0.05372810     0.12100
H669        H  0.15341360  0.80340258  0.97918708     0.12000
H670        H  0.10556731  0.80447671  0.00766566     0.11800
H671        H  0.07795683  0.79372016  0.05494257     0.12300
H672        H  0.15097474  0.73458486  0.08522943     0.14300
C673        C  0.19462292  0.36079888  0.01592376    -0.05800
C674        C  0.17143112  0.34574094  0.03246585    -0.05700
C675        C  0.16085339  0.35773168  0.05996717    -0.23900
C676        C  0.17320694  0.38506609  0.07163304     0.18400
C677        C  0.19504135  0.40158600  0.05441335     0.15600
C678        C  0.20550747  0.38947223  0.02650197    -0.18900
C679        C  0.20726073  0.42900037  0.06629792    -0.20700
C680        C  0.19978059  0.43851405  0.09587535    -0.13300
C681        C  0.17979804  0.42088266  0.11404727     0.03400
C682        C  0.16545066  0.39499071  0.10108351    -0.25400
H683        H  0.16214321  0.32386336  0.02481929     0.08500
H684        H  0.14389439  0.34492015  0.07270948     0.12100
H685        H  0.22313861  0.40150877  0.01394797     0.12000
H686        H  0.22375862  0.44222399  0.05336648     0.11800
H687        H  0.21109597  0.45870145  0.10512366     0.12300
H688        H  0.14987381  0.38123774  0.11464478     0.14300
C689        C  0.12636326  0.53374641  0.19972199    -0.05800
C690        C  0.09788619  0.53972821  0.21306237    -0.05700
C691        C  0.08257940  0.56735437  0.20716522    -0.23900
C692        C  0.09560962  0.58974740  0.18811033     0.18400
C693        C  0.12342965  0.58334598  0.17328010     0.15600
C694        C  0.13843603  0.55523672  0.17884748    -0.18900
C695        C  0.13663016  0.60590326  0.15452363    -0.20700
C696        C  0.12363041  0.63527738  0.15234556    -0.13300
C697        C  0.09697674  0.64257744  0.16860848     0.03400
C698        C  0.08228855  0.61911741  0.18526174    -0.25400
H699        H  0.08777939  0.52341541  0.22886063     0.08500
H700        H  0.06115865  0.57173325  0.21853861     0.12100
H701        H  0.16029641  0.55094257  0.16828597     0.12000
H702        H  0.15780740  0.60135657  0.14275076     0.11800
H703        H  0.13533665  0.65276334  0.13907924     0.12300
H704        H  0.06177963  0.62433731  0.19793201     0.14300
C705        C  0.26875748  0.39120741  0.20679201    -0.05800
C706        C  0.27273904  0.36910842  0.22988238    -0.05700
C707        C  0.29695661  0.34849787  0.22885794    -0.23900
C708        C  0.31723850  0.34924827  0.20428184     0.18400
C709        C  0.31440663  0.37235908  0.18156620     0.15600
C710        C  0.29022959  0.39361388  0.18317358    -0.18900
C711        C  0.33476453  0.37254611  0.15686024    -0.20700
C712        C  0.35655057  0.34909750  0.15388726    -0.13300
C713        C  0.35821565  0.32518359  0.17557258     0.03400
C714        C  0.33917379  0.32611054  0.20124773    -0.25400
H715        H  0.25628557  0.36703429  0.24813545     0.08500
H716        H  0.29893812  0.33101501  0.24649758     0.12100
H717        H  0.28688412  0.41040184  0.16508733     0.12000
H718        H  0.33309447  0.39010667  0.13928309     0.11800
H719        H  0.37111460  0.34887376  0.13396544     0.12300
H720        H  0.34059397  0.30800544  0.21835494     0.14300
C721        C  0.97583437  0.72032608  0.12090404    -0.05800
C722        C  0.96669804  0.73773824  0.09531321    -0.05700
C723        C  0.93881989  0.73218696  0.08123035    -0.23900
C724        C  0.91937358  0.70928943  0.09258991     0.18400
C725        C  0.92895319  0.69038560  0.11711159     0.15600
C726        C  0.95736021  0.69567998  0.13080315    -0.18900
C727        C  0.90906982  0.66797117  0.12887244    -0.20700
C728        C  0.87923356  0.66602320  0.11805538    -0.13300
C729        C  0.86911345  0.68584806  0.09472417     0.03400
C730        C  0.88977783  0.70644443  0.08114860    -0.25400
H731        H  0.98046372  0.75671642  0.08694727     0.08500
H732        H  0.93186389  0.74680894  0.06238359     0.12100
H733        H  0.96406811  0.68199786  0.15041479     0.12000
H734        H  0.91605093  0.65311556  0.14752308     0.11800
H735        H  0.86371605  0.64983269  0.12872682     0.12300
H736        H  0.88213432  0.72205599  0.06335541     0.14300
C737        C  0.61471327  0.75499249  0.92064709    -0.05800
C738        C  0.60219366  0.73811849  0.94508524    -0.05700
C739        C  0.62016160  0.72962882  0.97001263    -0.23900
C740        C  0.65100278  0.73768735  0.97084297     0.18400
C741        C  0.66320402  0.75673186  0.94766888     0.15600
C742        C  0.64486800  0.76568450  0.92298818    -0.18900
C743        C  0.69406818  0.76474543  0.94848287    -0.20700
C744        C  0.71310038  0.75235082  0.97090680    -0.13300
C745        C  0.70157424  0.73184355  0.99301112     0.03400
C746        C  0.67017900  0.72556814  0.99345936    -0.25400
H747        H  0.57902700  0.72972587  0.94407745     0.08500
H748        H  0.61034318  0.71533342  0.98779649     0.12100
H749        H  0.65482765  0.77894414  0.90450375     0.12000
H750        H  0.70376090  0.77953525  0.93102591     0.11800
H751        H  0.73709192  0.75785228  0.97015128     0.12300
H752        H  0.66083313  0.71013595  0.01057856     0.14300
C753        C  0.01748557  0.29264616  0.85164881    -0.05800
C754        C  0.03470444  0.31509571  0.83598278    -0.05700
C755        C  0.06349717  0.32364329  0.84619668    -0.23900
C756        C  0.07576712  0.31006844  0.87242326     0.18400
C757        C  0.05824643  0.28868054  0.88938256     0.15600
C758        C  0.02916664  0.28004901  0.87889855    -0.18900
C759        C  0.07069136  0.27540805  0.91580278    -0.20700
C760        C  0.10076553  0.28177713  0.92418979    -0.13300
C761        C  0.11896682  0.30158463  0.90634468     0.03400
C762        C  0.10580259  0.31651362  0.88107446    -0.25400
H763        H  0.02643646  0.32532216  0.81499460     0.08500
H764        H  0.07654226  0.34021115  0.83301758     0.12100
H765        H  0.01612961  0.26291188  0.89136644     0.12000
H766        H  0.05757202  0.25920728  0.92933734     0.11800
H767        H  0.11019044  0.26999212  0.94384229     0.12300
H768        H  0.11937151  0.33201723  0.86716820     0.14300
C769        C  0.85448919  0.17800562  0.81065959    -0.05800
C770        C  0.84934090  0.15749487  0.83505526    -0.05700
C771        C  0.82543404  0.13600056  0.83376421    -0.23900
C772        C  0.80631980  0.13478612  0.80807535     0.18400
C773        C  0.81282007  0.15395879  0.78269767     0.15600
C774        C  0.83694674  0.17506722  0.78404801    -0.18900
C775        C  0.79383939  0.15335411  0.75707872    -0.20700
C776        C  0.76734957  0.13573972  0.75741375    -0.13300
C777        C  0.75967237  0.11782691  0.78300909     0.03400
C778        C  0.77983392  0.11634220  0.80791040    -0.25400
H779        H  0.86257271  0.15935762  0.85582610     0.08500
H780        H  0.82101147  0.12142087  0.85340182     0.12100
H781        H  0.84094020  0.19057119  0.76498542     0.12000
H782        H  0.79863940  0.16774176  0.73738875     0.11800
H783        H  0.75213687  0.13697134  0.73799917     0.12300
H784        H  0.77383354  0.10274948  0.82783159     0.14300
C785        C  0.79549055  0.23620410  0.99006282    -0.05800
C786        C  0.78323480  0.25791221  0.96951604    -0.05700
C787        C  0.80076998  0.26979038  0.94573821    -0.23900
C788        C  0.83088010  0.26017553  0.94205087     0.18400
C789        C  0.84420009  0.24027127  0.96387172     0.15600
C790        C  0.82647243  0.22855961  0.98790434    -0.18900
C791        C  0.87444041  0.23085934  0.96012960    -0.20700
C792        C  0.89042602  0.23892354  0.93371214    -0.13300
C793        C  0.87641807  0.25660111  0.91074311     0.03400
C794        C  0.84715341  0.26844819  0.91582250    -0.25400
H795        H  0.75956318  0.26455960  0.97079832     0.08500
H796        H  0.79033061  0.28532910  0.92939975     0.12100
H797        H  0.83634623  0.21221967  0.00383478     0.12000
H798        H  0.88516226  0.21590555  0.97679758     0.11800
H799        H  0.91300865  0.22961020  0.93039492     0.12300
H800        H  0.83624841  0.28242773  0.89842640     0.14300
C801        C  0.81042279  0.59430725  0.87176416    -0.05800
C802        C  0.83237617  0.61628917  0.88068301    -0.05700
C803        C  0.83267434  0.62845762  0.91020823    -0.23900
C804        C  0.81080539  0.61916093  0.93150708     0.18400
C805        C  0.78994052  0.59553171  0.92358915     0.15600
C806        C  0.79008157  0.58293185  0.89383942    -0.18900
C807        C  0.76806707  0.58633646  0.94496866    -0.20700
C808        C  0.76551163  0.60178347  0.97291285    -0.13300
C809        C  0.78478640  0.62680764  0.98023092     0.03400
C810        C  0.80829458  0.63444834  0.95980468    -0.25400
H811        H  0.84854225  0.62525331  0.86424619     0.08500
H812        H  0.84907876  0.64626550  0.91587682     0.12100
H813        H  0.77293864  0.56619104  0.88727108     0.12000
H814        H  0.75203229  0.56811107  0.93955663     0.11800
H815        H  0.74733965  0.59500657  0.98818530     0.12300
H816        H  0.82345585  0.65350333  0.96502848     0.14300
C817        C  0.89848606  0.37147017  0.81134508    -0.05800
C818        C  0.87912552  0.38204760  0.83473652    -0.05700
C819        C  0.86818367  0.41241585  0.83475708    -0.23900
C820        C  0.87614062  0.43286149  0.81123644     0.18400
C821        C  0.89700916  0.42311666  0.78865904     0.15600
C822        C  0.90825301  0.39262613  0.78898437    -0.18900
C823        C  0.90506863  0.44353495  0.76519213    -0.20700
C824        C  0.89132553  0.47257509  0.76304831    -0.13300
C825        C  0.86908340  0.48192371  0.78425889     0.03400
C826        C  0.86238583  0.46221443  0.80899063    -0.25400
H827        H  0.87145032  0.36644891  0.85250232     0.08500
H828        H  0.85251505  0.41949653  0.85249626     0.12100
H829        H  0.92310278  0.38490481  0.77078900     0.12000
H830        H  0.92114997  0.43660072  0.74777269     0.11800
H831        H  0.89708371  0.48709259  0.74373832     0.12300
H832        H  0.84543501  0.46902575  0.82561751     0.14300
C833        C  0.70812167  0.60401770  0.77877065    -0.05800
C834        C  0.70002835  0.62353662  0.75447787    -0.05700
C835        C  0.67533628  0.64349758  0.75704100    -0.23900
C836        C  0.65864523  0.64457184  0.78421420     0.18400
C837        C  0.66477968  0.62302093  0.80775674     0.15600
C838        C  0.68946749  0.60252528  0.80475662    -0.18900
C839        C  0.64779008  0.62426684  0.83486932    -0.20700
C840        C  0.62678991  0.64814484  0.83954405    -0.13300
C841        C  0.62271049  0.67116988  0.81728240     0.03400
C842        C  0.63769065  0.66843389  0.78913364    -0.25400
H843        H  0.71442356  0.62517001  0.73446176     0.08500
H844        H  0.67071680  0.65962590  0.73867237     0.12100
H845        H  0.69600998  0.58791739  0.82377261     0.12000
H846        H  0.65186218  0.60778125  0.85304588     0.11800
H847        H  0.61520870  0.64973557  0.86130318     0.12300
H848        H  0.63423530  0.68588448  0.77167397     0.14300
C849        C  0.11195307  0.73053527  0.27030484    -0.05800
C850        C  0.13654964  0.75093081  0.27433864    -0.05700
C851        C  0.15713319  0.74679985  0.29804726    -0.23900
C852        C  0.15367167  0.72200372  0.31821292     0.18400
C853        C  0.12773100  0.70274540  0.31620418     0.15600
C854        C  0.10665483  0.70733057  0.29226936    -0.18900
C855        C  0.12456661  0.67814897  0.33699524    -0.20700
C856        C  0.14778575  0.67156850  0.35803413    -0.13300
C857        C  0.17455070  0.68936802  0.35842031     0.03400
C858        C  0.17670650  0.71525115  0.33919091    -0.25400
H859        H  0.14092256  0.76912889  0.25789989     0.08500
H860        H  0.17666061  0.76202016  0.29958106     0.12100
H861        H  0.08783853  0.69142156  0.28929981     0.12000
H862        H  0.10472715  0.66331989  0.33621394     0.11800
H863        H  0.14541694  0.65176722  0.37300547     0.12300
H864        H  0.19691063  0.72963418  0.33981977     0.14300
C865        C  0.22658231  0.50956238  0.28968163    -0.05800
C866        C  0.24875947  0.53018218  0.27867030    -0.05700
C867        C  0.26234784  0.55173042  0.29812381    -0.23900
C868        C  0.25388891  0.55319661  0.32893564     0.18400
C869        C  0.23328602  0.53120266  0.34080809     0.15600
C870        C  0.21996570  0.50931807  0.32117730    -0.18900
C871        C  0.22478876  0.53286452  0.37163915    -0.20700
C872        C  0.23412972  0.55789237  0.38962830    -0.13300
C873        C  0.25242312  0.58146581  0.37717690     0.03400
C874        C  0.26382565  0.57776129  0.34735362    -0.25400
H875        H  0.25458364  0.53072037  0.25465300     0.08500
H876        H  0.27832091  0.56826394  0.28870942     0.12100
H877        H  0.20324102  0.49327812  0.33012833     0.12000
H878        H  0.20935797  0.51593652  0.38128789     0.11800
H879        H  0.22521387  0.55987875  0.41258659     0.12300
H880        H  0.27821212  0.59548112  0.33744453     0.14300
C881        C  0.27749262  0.78249781  0.38114423    -0.05800
C882        C  0.25225007  0.79380447  0.36517420    -0.05700
C883        C  0.25534396  0.81868699  0.34502500    -0.23900
C884        C  0.28391859  0.83222584  0.34012042     0.18400
C885        C  0.30928400  0.82187530  0.35707720     0.15600
C886        C  0.30586830  0.79704326  0.37762218    -0.18900
C887        C  0.33787447  0.83541210  0.35188049    -0.20700
C888        C  0.34157672  0.85783230  0.32902739    -0.13300
C889        C  0.31681242  0.86683032  0.31091732     0.03400
C890        C  0.28785967  0.85461979  0.31725380    -0.25400
H891        H  0.23042178  0.78237210  0.36720563     0.08500
H892        H  0.23568839  0.82636908  0.33221216     0.12100
H893        H  0.32553499  0.78779603  0.38939222     0.12000
H894        H  0.35756190  0.82783268  0.36468454     0.11800
H895        H  0.36408218  0.86682013  0.32434928     0.12300
H896        H  0.26861442  0.86159164  0.30342171     0.14300
C897        C  0.46879594  0.70674218  0.35773524    -0.05800
C898        C  0.45326067  0.68340650  0.34148261    -0.05700
C899        C  0.42455068  0.67334623  0.35063483    -0.23900
C900        C  0.41063300  0.68633848  0.37629039     0.18400
C901        C  0.42659406  0.70852936  0.39382827     0.15600
C902        C  0.45563059  0.71850575  0.38456070    -0.18900
C903        C  0.41264438  0.72139278  0.41956534    -0.20700
C904        C  0.38267512  0.71369049  0.42685354    -0.13300
C905        C  0.36590587  0.69298661  0.40853549     0.03400
C906        C  0.38051020  0.67858951  0.38379910    -0.25400
H907        H  0.46281902  0.67356673  0.32088414     0.08500
H908        H  0.41282876  0.65613230  0.33702933     0.12100
H909        H  0.46722128  0.73644326  0.39735585     0.12000
H910        H  0.42451000  0.73827910  0.43344080     0.11800
H911        H  0.37218257  0.72520348  0.44609324     0.12300
H912        H  0.36801464  0.66258792  0.36945141     0.14300
C913        C  0.67440006  0.70033061  0.13073941    -0.05800
C914        C  0.64975984  0.67963573  0.13120979    -0.05700
C915        C  0.62552443  0.68431869  0.15123106    -0.23900
C916        C  0.62566759  0.70976168  0.17103298     0.18400
C917        C  0.64919274  0.73202414  0.16883010     0.15600
C918        C  0.67326657  0.72729354  0.14850811    -0.18900
C919        C  0.64962660  0.75730925  0.18878323    -0.20700
C920        C  0.62892875  0.75866240  0.21277837    -0.13300
C921        C  0.60709505  0.73532923  0.21657865     0.03400
C922        C  0.60428543  0.71190568  0.19467758    -0.25400
H923        H  0.65009134  0.65882898  0.11744249     0.08500
H924        H  0.60758564  0.66717900  0.15240881     0.12100
H925        H  0.69197591  0.74362346  0.14783442     0.12000
H926        H  0.66723531  0.77476392  0.18718448     0.11800
H927        H  0.63112767  0.77693378  0.22952749     0.12300
H928        H  0.58758364  0.69372945  0.19786255     0.14300
C929        C  0.49322149  0.81418204  0.27499625    -0.05800
C930        C  0.49278370  0.84353371  0.28886748    -0.05700
C931        C  0.47387504  0.86684879  0.27788044    -0.23900
C932        C  0.45464410  0.86115882  0.25306802     0.18400
C933        C  0.45584192  0.83229291  0.23793729     0.15600
C934        C  0.47551847  0.80911539  0.24868735    -0.18900
C935        C  0.43587199  0.82644677  0.21364531    -0.20700
C936        C  0.41311763  0.84778738  0.20640871    -0.13300
C937        C  0.41059745  0.87567230  0.22272529     0.03400
C938        C  0.43262698  0.88298086  0.24476770    -0.25400
H939        H  0.50655924  0.84831367  0.30881174     0.08500
H940        H  0.47332675  0.88888198  0.28965859     0.12100
H941        H  0.47571197  0.78666498  0.23767088     0.12000
H942        H  0.43656645  0.80457397  0.20159343     0.11800
H943        H  0.39638855  0.84170753  0.18928479     0.12300
H944        H  0.43069902  0.90424097  0.25775506     0.14300
C945        C  0.48330249  0.18960511  0.69984938    -0.05800
C946        C  0.49138895  0.16585136  0.67941411    -0.05700
C947        C  0.51205341  0.14294813  0.68790655    -0.23900
C948        C  0.52540364  0.14346627  0.71691779     0.18400
C949        C  0.51666795  0.16643369  0.73813454     0.15600
C950        C  0.49537402  0.18912731  0.72962243    -0.18900
C951        C  0.53065957  0.16731488  0.76689694    -0.20700
C952        C  0.55461093  0.14719458  0.77366437    -0.13300
C953        C  0.56451513  0.12532839  0.75208711     0.03400
C954        C  0.54874332  0.12264256  0.72428535    -0.25400
H955        H  0.48230106  0.16534810  0.65643862     0.08500
H956        H  0.51843460  0.12549743  0.67135888     0.12100
H957        H  0.48940864  0.20722269  0.74564434     0.12000
H958        H  0.52418947  0.18461986  0.78354655     0.11800
H959        H  0.56636656  0.14972764  0.79524858     0.12300
H960        H  0.55636025  0.10617664  0.70726948     0.14300
C961        C  0.36608978  0.26891279  0.76603978    -0.05800
C962        C  0.33982605  0.25067543  0.76894149    -0.05700
C963        C  0.32077886  0.25398938  0.79409498    -0.23900
C964        C  0.32735255  0.27606998  0.81652204     0.18400
C965        C  0.35460951  0.29328516  0.81502548     0.15600
C966        C  0.37419950  0.28919747  0.78990888    -0.18900
C967        C  0.36062510  0.31563956  0.83761652    -0.20700
C968        C  0.33888478  0.32223166  0.86018021    -0.13300
C969        C  0.31096799  0.30649606  0.86036167     0.03400
C970        C  0.30604762  0.28253628  0.83926159    -0.25400
H971        H  0.33324786  0.23483334  0.75094209     0.08500
H972        H  0.30004778  0.24047988  0.79514050     0.12100
H973        H  0.39426548  0.30358468  0.78770870     0.12000
H974        H  0.38148225  0.32894971  0.83701461     0.11800
H975        H  0.34319790  0.34064309  0.87637896     0.12300
H976        H  0.28477058  0.26988252  0.83958534     0.14300
C977        C  0.40154594  0.37379307  0.69223021    -0.05800
C978        C  0.41857123  0.38944803  0.71457548    -0.05700
C979        C  0.41173753  0.42015616  0.72215217    -0.23900
C980        C  0.38781416  0.43562453  0.70743861     0.18400
C981        C  0.37199999  0.42057535  0.68357462     0.15600
C982        C  0.37909545  0.38995346  0.67602219    -0.18900
C983        C  0.34811763  0.43571865  0.66875090    -0.20700
C984        C  0.33849407  0.46464896  0.67883925    -0.13300
C985        C  0.35278012  0.47922112  0.70370729     0.03400
C986        C  0.37831454  0.46511083  0.71716695    -0.25400
H987        H  0.43603002  0.37743898  0.72733551     0.08500
H988        H  0.42429590  0.43133221  0.74035131     0.12100
H989        H  0.36611163  0.37818014  0.65846586     0.12000
H990        H  0.33601651  0.42462677  0.65018327     0.11800
H991        H  0.31912860  0.47522563  0.66773086     0.12300
H992        H  0.38955080  0.47611694  0.73632832     0.14300
C993        C  0.28224454  0.63731381  0.52139347    -0.05800
C994        C  0.30921527  0.64747186  0.53545902    -0.05700
C995        C  0.31771424  0.63650059  0.56413089    -0.23900
C996        C  0.29943176  0.61512707  0.57956828     0.18400
C997        C  0.27291099  0.60353318  0.56542776     0.15600
C998        C  0.26449887  0.61459416  0.53627966    -0.18900
C999        C  0.25478442  0.58206252  0.58130445    -0.20700
C1000       C  0.26213138  0.57345468  0.61134944    -0.13300
C1001       C  0.28765724  0.58624022  0.62600445     0.03400
C1002       C  0.30666294  0.60632739  0.60950590    -0.25400
H1003       H  0.32349832  0.66470796  0.52465777     0.08500
H1004       H  0.33819711  0.64547124  0.57463183     0.12100
H1005       H  0.24359931  0.60653941  0.52587667     0.12000
H1006       H  0.23439068  0.57277560  0.57090695     0.11800
H1007       H  0.24696324  0.55814028  0.62365993     0.12300
H1008       H  0.32647616  0.61624641  0.62050308     0.14300
C1009       C  0.27524109  0.50236992  0.81039806    -0.05800
C1010       C  0.29337407  0.49923498  0.83677299    -0.05700
C1011       C  0.28614027  0.47776292  0.85948624    -0.23900
C1012       C  0.26064934  0.45865069  0.85641872     0.18400
C1013       C  0.24132065  0.46247130  0.83087198     0.15600
C1014       C  0.24857505  0.48446073  0.80810969    -0.18900
C1015       C  0.21589681  0.44316466  0.82785297    -0.20700
C1016       C  0.21087068  0.41908367  0.84865654    -0.13300
C1017       C  0.23104882  0.41377915  0.87311941     0.03400
C1018       C  0.25520978  0.43465959  0.87753966    -0.25400
H1019       H  0.31384736  0.51286107  0.83953035     0.08500
H1020       H  0.30114203  0.47537992  0.87897245     0.12100
H1021       H  0.23434851  0.48648342  0.78800559     0.12000
H1022       H  0.20061352  0.44579170  0.80862882     0.11800
H1023       H  0.19196239  0.40357025  0.84460611     0.12300
H1024       H  0.27110133  0.43092839  0.89609388     0.14300
C1025       C  0.32908629  0.64727264  0.81174133    -0.05800
C1026       C  0.34723859  0.67341049  0.80628229    -0.05700
C1027       C  0.34498931  0.69937961  0.82479899    -0.23900
C1028       C  0.32413622  0.69985039  0.84884620     0.18400
C1029       C  0.30701222  0.67305866  0.85592120     0.15600
C1030       C  0.30990710  0.64652923  0.83741421    -0.18900
C1031       C  0.28604383  0.67415601  0.88012193    -0.20700
C1032       C  0.28071261  0.70204244  0.89566377    -0.13300
C1033       C  0.29629591  0.72907736  0.88712490     0.03400
C1034       C  0.31885942  0.72738615  0.86460255    -0.25400
H1035       H  0.36223672  0.67421713  0.78667033     0.08500
H1036       H  0.35842414  0.71967407  0.81930719     0.12100
H1037       H  0.29567797  0.62645655  0.84149933     0.12000
H1038       H  0.27286149  0.65385894  0.88612942     0.11800
H1039       H  0.26336593  0.70285674  0.91316605     0.12300
H1040       H  0.33141178  0.74805044  0.85828345     0.14300
C1041       C  0.40851009  0.62793864  0.72615429    -0.05800
C1042       C  0.40956782  0.65659793  0.71083561    -0.05700
C1043       C  0.43123403  0.67905117  0.71881797    -0.23900
C1044       C  0.45206913  0.67335807  0.74244164     0.18400
C1045       C  0.45266929  0.64369868  0.75606954     0.15600
C1046       C  0.43139204  0.62113218  0.74749126    -0.18900
C1047       C  0.47318081  0.63759409  0.77962378    -0.20700
C1048       C  0.49172177  0.66103751  0.79090967    -0.13300
C1049       C  0.49040143  0.69130760  0.77894370     0.03400
C1050       C  0.47113818  0.69706337  0.75382819    -0.25400
H1051       H  0.39226174  0.66260267  0.69430036     0.08500
H1052       H  0.43053588  0.70145355  0.70773778     0.12100
H1053       H  0.43108955  0.59914860  0.75942820     0.12000
H1054       H  0.47411426  0.61492178  0.79015837     0.11800
H1055       H  0.50662232  0.65545697  0.80979582     0.12300
H1056       H  0.46997661  0.72009469  0.74411754     0.14300
C1057       C  0.57992791  0.63293843  0.30666898    -0.05800
C1058       C  0.59496074  0.61987503  0.33183034    -0.05700
C1059       C  0.60467448  0.58923194  0.33103833    -0.23900
C1060       C  0.60021746  0.57145597  0.30470753     0.18400
C1061       C  0.58337649  0.58370154  0.28000514     0.15600
C1062       C  0.57272863  0.61429001  0.28140880    -0.18900
C1063       C  0.57948828  0.56593093  0.25350445    -0.20700
C1064       C  0.59418359  0.53741206  0.25060082    -0.13300
C1065       C  0.61275233  0.52614982  0.27426769     0.03400
C1066       C  0.61433518  0.54261667  0.30185563    -0.25400
H1067       H  0.60036502  0.63384248  0.35164192     0.08500
H1068       H  0.61726427  0.58006727  0.35027319     0.12100
H1069       H  0.56124988  0.62432597  0.26186949     0.12000
H1070       H  0.56647536  0.57480598  0.23441815     0.11800
H1071       H  0.59236910  0.52504504  0.22917840     0.12300
H1072       H  0.62819300  0.53396684  0.32045113     0.14300
C1073       C  0.69488664  0.35816020  0.19679325    -0.05800
C1074       C  0.71737246  0.33688414  0.20564508    -0.05700
C1075       C  0.72876436  0.31552307  0.18495188    -0.23900
C1076       C  0.71763101  0.31480189  0.15508834     0.18400
C1077       C  0.69591893  0.33672225  0.14535280     0.15600
C1078       C  0.68482706  0.35856605  0.16626161    -0.18900
C1079       C  0.68459524  0.33527297  0.11536429    -0.20700
C1080       C  0.69274435  0.31064175  0.09626032    -0.13300
C1081       C  0.71257145  0.28768264  0.10693358     0.03400
C1082       C  0.72634498  0.29099600  0.13558206    -0.25400
H1083       H  0.72591883  0.33629937  0.22883623     0.08500
H1084       H  0.74548112  0.29887230  0.19261353     0.12100
H1085       H  0.66774466  0.37503514  0.15906643     0.12000
H1086       H  0.66812687  0.35201027  0.10739440     0.11800
H1087       H  0.68181824  0.30828317  0.07421666     0.12300
H1088       H  0.74188318  0.27338380  0.14372900     0.14300
C1089       C  0.58150960  0.37365891  0.26625173    -0.05800
C1090       C  0.58184853  0.34398647  0.27954155    -0.05700
C1091       C  0.55850750  0.32290119  0.27372567    -0.23900
C1092       C  0.53455469  0.33099600  0.25427068     0.18400
C1093       C  0.53265192  0.36153897  0.24287873     0.15600
C1094       C  0.55586072  0.38285636  0.24938796    -0.18900
C1095       C  0.50883380  0.36954428  0.22319247    -0.20700
C1096       C  0.48874008  0.34687204  0.21272914    -0.13300
C1097       C  0.49178918  0.31591856  0.22218555     0.03400
C1098       C  0.51380202  0.30850252  0.24426950    -0.25400
H1099       H  0.60108025  0.33632995  0.29297454     0.08500
H1100       H  0.56014846  0.29970500  0.28296981     0.12100
H1101       H  0.55509706  0.40570633  0.23921918     0.12000
H1102       H  0.50675215  0.39293656  0.21455620     0.11800
H1103       H  0.47155801  0.35336284  0.19623140     0.12300
H1104       H  0.51627090  0.28479967  0.25197001     0.14300
C1105       C  0.75525379  0.59257807  0.12912060    -0.05800
C1106       C  0.77076285  0.59120674  0.15721695    -0.05700
C1107       C  0.76539292  0.56710916  0.17770942    -0.23900
C1108       C  0.74418193  0.54406875  0.17064321     0.18400
C1109       C  0.73048806  0.54362272  0.14143339     0.15600
C1110       C  0.73642484  0.56768975  0.12064351    -0.18900
C1111       C  0.70938199  0.52038512  0.13442265    -0.20700
C1112       C  0.69994157  0.49956215  0.15695568    -0.13300
C1113       C  0.71152846  0.50156208  0.18686274     0.03400
C1114       C  0.73485901  0.52287617  0.19304006    -0.25400
H1115       H  0.78585876  0.60971754  0.16415505     0.08500
H1116       H  0.77650334  0.56751289  0.19979236     0.12100
H1117       H  0.72448443  0.56827620  0.09900002     0.12000
H1118       H  0.69897378  0.51933118  0.11201947     0.11800
H1119       H  0.68233211  0.48299668  0.15135218     0.12300
H1120       H  0.74447746  0.52425664  0.21579221     0.14300
C1121       C  0.67977961  0.43152427  0.37510879    -0.05800
C1122       C  0.70227024  0.44741332  0.39173246    -0.05700
C1123       C  0.71006119  0.43793833  0.42134010    -0.23900
C1124       C  0.69579893  0.41214659  0.43461001     0.18400
C1125       C  0.67190230  0.39735502  0.41874498     0.15600
C1126       C  0.66365984  0.40751265  0.38953992    -0.18900
C1127       C  0.65782893  0.37132247  0.43142315    -0.20700
C1128       C  0.66839055  0.35893291  0.45878668    -0.13300
C1129       C  0.69305406  0.37247131  0.47430855     0.03400
C1130       C  0.70601434  0.39983884  0.46258426    -0.25400
H1131       H  0.71512624  0.46594562  0.38121649     0.08500
H1132       H  0.72830747  0.44974774  0.43317521     0.12100
H1133       H  0.64615851  0.39507115  0.37716684     0.12000
H1134       H  0.63939151  0.35980208  0.41959019     0.11800
H1135       H  0.65761325  0.33815322  0.46741790     0.12300
H1136       H  0.72499161  0.41055992  0.47428551     0.14300
C1137       C  0.50733768  0.29965108  0.62648175    -0.05800
C1138       C  0.52324906  0.32136186  0.64435137    -0.05700
C1139       C  0.55230959  0.33112982  0.63618901    -0.23900
C1140       C  0.56629201  0.31922199  0.61006358     0.18400
C1141       C  0.55001731  0.29879206  0.59083274     0.15600
C1142       C  0.52042342  0.28933109  0.59898324    -0.18900
C1143       C  0.56429629  0.28697283  0.56470023    -0.20700
C1144       C  0.59486285  0.29377545  0.55879927    -0.13300
C1145       C  0.61174320  0.31256663  0.57888581     0.03400
C1146       C  0.59683663  0.32614685  0.60386916    -0.25400
H1147       H  0.51359418  0.33009021  0.66539475     0.08500
H1148       H  0.56431491  0.34705348  0.65101736     0.12100
H1149       H  0.50846159  0.27259709  0.58500226     0.12000
H1150       H  0.55222517  0.27146551  0.54950813     0.11800
H1151       H  0.60567290  0.28302321  0.53930322     0.12300
H1152       H  0.60940380  0.34087975  0.61942681     0.14300
C1153       C  0.67315230  0.13761900  0.67742500    -0.05800
C1154       C  0.65728256  0.13630615  0.64963017    -0.05700
C1155       C  0.66362107  0.15777067  0.62643862    -0.23900
C1156       C  0.68589895  0.18067518  0.63086826     0.18400
C1157       C  0.70328670  0.18045823  0.65803311     0.15600
C1158       C  0.69693219  0.15890120  0.68089060    -0.18900
C1159       C  0.72545915  0.20309183  0.66293560    -0.20700
C1160       C  0.72860270  0.22743559  0.64243853    -0.13300
C1161       C  0.70997146  0.22932368  0.61647890     0.03400
C1162       C  0.68972711  0.20501676  0.60984080    -0.25400
H1163       H  0.63896963  0.11985367  0.64651623     0.08500
H1164       H  0.65020541  0.15734578  0.60569603     0.12100
H1165       H  0.70958169  0.15965634  0.70214040     0.12000
H1166       H  0.73917503  0.20295167  0.68349336     0.11800
H1167       H  0.74457830  0.24576834  0.64770687     0.12300
H1168       H  0.67521556  0.20643566  0.58988317     0.14300
C1169       C  0.87826255  0.29377743  0.71331892    -0.05800
C1170       C  0.88484831  0.27846947  0.68582321    -0.05700
C1171       C  0.86832576  0.28544237  0.65920379    -0.23900
C1172       C  0.84526238  0.30796634  0.65979018     0.18400
C1173       C  0.84018747  0.32471833  0.68705137     0.15600
C1174       C  0.85667027  0.31759305  0.71335619    -0.18900
C1175       C  0.81760705  0.34737229  0.68820047    -0.20700
C1176       C  0.79851683  0.35185771  0.66335780    -0.13300
C1177       C  0.80180086  0.33407167  0.63676483     0.03400
C1178       C  0.82608748  0.31302584  0.63442240    -0.25400
H1179       H  0.90174877  0.26030850  0.68526099     0.08500
H1180       H  0.87287617  0.27254580  0.63849983     0.12100
H1181       H  0.85200281  0.33007736  0.73432892     0.12000
H1182       H  0.81377477  0.36064744  0.70883365     0.11800
H1183       H  0.78018732  0.36845412  0.66536544     0.12300
H1184       H  0.82866291  0.29921103  0.61393503     0.14300
C1185       C  0.77829879  0.50216479  0.69091044    -0.05800
C1186       C  0.79621454  0.49880073  0.66440657    -0.05700
C1187       C  0.78718215  0.47961071  0.64050540    -0.23900
C1188       C  0.75984705  0.46323364  0.64222363     0.18400
C1189       C  0.74089510  0.46699140  0.66802131     0.15600
C1190       C  0.75025037  0.48638801  0.69234948    -0.18900
C1191       C  0.71343538  0.45047059  0.66930295    -0.20700
C1192       C  0.70587660  0.42911471  0.64634547    -0.13300
C1193       C  0.72549912  0.42392536  0.62144701     0.03400
C1194       C  0.75195555  0.44210958  0.61911862    -0.25400
H1195       H  0.81788672  0.51049208  0.66230838     0.08500
H1196       H  0.80198264  0.47708816  0.62089340     0.12100
H1197       H  0.73602371  0.48882369  0.71238872     0.12000
H1198       H  0.69835072  0.45313963  0.68866205     0.11800
H1199       H  0.68539804  0.41547501  0.64896522     0.12300
H1200       H  0.76750280  0.43847383  0.60026644     0.14300
C1201       C  0.85499524  0.33692808  0.32601960    -0.05800
C1202       C  0.83537989  0.34012015  0.35101477    -0.05700
C1203       C  0.81186480  0.36150765  0.35028156    -0.23900
C1204       C  0.80711086  0.37947669  0.32417288     0.18400
C1205       C  0.82757696  0.37764512  0.29929850     0.15600
C1206       C  0.85190820  0.35654621  0.30060045    -0.18900
C1207       C  0.82195230  0.39539655  0.27297502    -0.20700
C1208       C  0.79513317  0.41274223  0.27047851    -0.13300
C1209       C  0.77392797  0.41266455  0.29441556     0.03400
C1210       C  0.78084656  0.39731932  0.32168828    -0.25400
H1211       H  0.83769324  0.32518398  0.37075397     0.08500
H1212       H  0.79639605  0.36279536  0.36952382     0.12100
H1213       H  0.86697152  0.35383651  0.28117897     0.12000
H1214       H  0.83736996  0.39444744  0.25370490     0.11800
H1215       H  0.78996972  0.42434033  0.24917528     0.12300
H1216       H  0.76445750  0.39734896  0.34023907     0.14300
C1217       C  0.87501685  0.26042730  0.41949397    -0.05800
C1218       C  0.88456690  0.28437212  0.43904360    -0.05700
C1219       C  0.86652587  0.29372711  0.46356280    -0.23900
C1220       C  0.83844607  0.27946334  0.46893981     0.18400
C1221       C  0.82958162  0.25385790  0.45097292     0.15600
C1222       C  0.84809681  0.24423201  0.42656508    -0.18900
C1223       C  0.80146186  0.23959324  0.45654901    -0.20700
C1224       C  0.78157064  0.25177601  0.47839331    -0.13300
C1225       C  0.78941696  0.27845187  0.49503107     0.03400
C1226       C  0.81843072  0.29148903  0.49087094    -0.25400
H1227       H  0.90524428  0.29713397  0.43439087     0.08500
H1228       H  0.87384663  0.31314928  0.47736259     0.12100
H1229       H  0.84035776  0.22573800  0.41177268     0.12000
H1230       H  0.79434596  0.21977221  0.44320440     0.11800
H1231       H  0.75948165  0.24110552  0.48127148     0.12300
H1232       H  0.82499662  0.31178455  0.50382323     0.14300
C1233       C  0.07276420  0.39324739  0.23467601    -0.05800
C1234       C  0.05249348  0.40735190  0.25528149    -0.05700
C1235       C  0.02756782  0.39114053  0.26687766    -0.23900
C1236       C  0.02225540  0.36046769  0.25808207     0.18400
C1237       C  0.04082340  0.34684556  0.23547707     0.15600
C1238       C  0.06583074  0.36338385  0.22371270    -0.18900
C1239       C  0.03516533  0.31623391  0.22646626    -0.20700
C1240       C  0.01263907  0.29872990  0.24104002    -0.13300
C1241       C  0.99539146  0.31142386  0.26501259     0.03400
C1242       C  0.99971010  0.34274613  0.27266571    -0.25400
H1243       H  0.05696526  0.43031433  0.26409326     0.08500
H1244       H  0.01332820  0.40211486  0.28388250     0.12100
H1245       H  0.08107993  0.35211019  0.20780834     0.12000
H1246       H  0.04892008  0.30543653  0.20895692     0.11800
H1247       H  0.00968595  0.27477448  0.23443849     0.12300
H1248       H  0.98633771  0.35303169  0.29078285     0.14300
C1249       C  0.81452625  0.19793351  0.13326756    -0.05800
C1250       C  0.84132017  0.18037206  0.13420257    -0.05700
C1251       C  0.86334759  0.18618243  0.15661454    -0.23900
C1252       C  0.85884038  0.20974122  0.17823916     0.18400
C1253       C  0.83280516  0.22872336  0.17598605     0.15600
C1254       C  0.81098776  0.22280602  0.15352269    -0.18900
C1255       C  0.82798559  0.25228252  0.19730978    -0.20700
C1256       C  0.84751767  0.25549909  0.22208469    -0.13300
C1257       C  0.87236797  0.23547989  0.22584891     0.03400
C1258       C  0.87881941  0.21349573  0.20308242    -0.25400
H1259       H  0.84450334  0.16116536  0.11865239     0.08500
H1260       H  0.88322501  0.17152164  0.15778333     0.12100
H1261       H  0.79057803  0.23676026  0.15261540     0.12000
H1262       H  0.80832946  0.26722403  0.19566114     0.11800
H1263       H  0.84237067  0.27286757  0.23915910     0.12300
H1264       H  0.89786285  0.19791326  0.20588352     0.14300
C1265       C  0.27288885  0.09897317  0.67723479    -0.05800
C1266       C  0.29743348  0.09588687  0.69746577    -0.05700
C1267       C  0.32329098  0.11468277  0.69403854    -0.23900
C1268       C  0.32452647  0.13705949  0.67069270     0.18400
C1269       C  0.30065055  0.13853868  0.64914249     0.15600
C1270       C  0.27556074  0.11897533  0.65211814    -0.18900
C1271       C  0.30085849  0.16131982  0.62640187    -0.20700
C1272       C  0.32344387  0.18387671  0.62618321    -0.13300
C1273       C  0.34670472  0.18341364  0.64800534     0.03400
C1274       C  0.34791491  0.15934258  0.66962105    -0.25400
H1275       H  0.29569336  0.08073086  0.71708801     0.08500
H1276       H  0.34139137  0.11308515  0.71072653     0.12100
H1277       H  0.25669217  0.12130421  0.63633165     0.12000
H1278       H  0.28265158  0.16270146  0.60979632     0.11800
H1279       H  0.32229934  0.20234621  0.60947195     0.12300
H1280       H  0.36570965  0.15927905  0.68673635     0.14300
C1281       C  0.21465113  0.21456564  0.87894972    -0.05800
C1282       C  0.19746772  0.18935791  0.88945887    -0.05700
C1283       C  0.19117648  0.16455216  0.86987114    -0.23900
C1284       C  0.20173907  0.16503228  0.83959028     0.18400
C1285       C  0.22100394  0.18928545  0.82990800     0.15600
C1286       C  0.22783395  0.21341944  0.84983061    -0.18900
C1287       C  0.23138212  0.19033951  0.79976321    -0.20700
C1288       C  0.22126145  0.16859237  0.77870696    -0.13300
C1289       C  0.20079963  0.14521338  0.78749029     0.03400
C1290       C  0.19199358  0.14286520  0.81833068    -0.25400
H1291       H  0.18710206  0.18989585  0.91187506     0.08500
H1292       H  0.17660181  0.14599213  0.87779274     0.12100
H1293       H  0.24142433  0.23270160  0.84174474     0.12000
H1294       H  0.24630051  0.20876075  0.79213873     0.11800
H1295       H  0.22881342  0.17071395  0.75526830     0.12300
H1296       H  0.17646254  0.12478446  0.82549063     0.14300
C1297       C  0.08467301  0.13610960  0.72542279    -0.05800
C1298       C  0.08503240  0.16592008  0.71226889    -0.05700
C1299       C  0.06183940  0.18715043  0.71815328    -0.23900
C1300       C  0.03761746  0.17912037  0.73728450     0.18400
C1301       C  0.03609141  0.14872587  0.74925466     0.15600
C1302       C  0.05951183  0.12741475  0.74323045    -0.18900
C1303       C  0.01178695  0.14053002  0.76814257    -0.20700
C1304       C  0.99017522  0.16254910  0.77646039    -0.13300
C1305       C  0.99230662  0.19344762  0.76624265     0.03400
C1306       C  0.01567871  0.20129473  0.74572906    -0.25400
H1307       H  0.10394544  0.17340843  0.69828577     0.08500
H1308       H  0.06338469  0.21019001  0.70850573     0.12100
H1309       H  0.05877328  0.10461158  0.75352267     0.12000
H1310       H  0.00999686  0.11731273  0.77732586     0.11800
H1311       H  0.97233430  0.15550742  0.79200690     0.12300
H1312       H  0.01772915  0.22489630  0.73760054     0.14300
C1313       C  0.24227466  0.92357356  0.86840291    -0.05800
C1314       C  0.22305437  0.94615273  0.88107787    -0.05700
C1315       C  0.21413395  0.97181048  0.86386171    -0.23900
C1316       C  0.22406546  0.97509294  0.83363176     0.18400
C1317       C  0.24511688  0.95368826  0.82154955     0.15600
C1318       C  0.25445706  0.92842331  0.83914651    -0.18900
C1319       C  0.25496001  0.95665921  0.79133424    -0.20700
C1320       C  0.24243325  0.97927671  0.77254747    -0.13300
C1321       C  0.22002293  0.99952540  0.78369835     0.03400
C1322       C  0.21190285  0.99817639  0.81471543    -0.25400
H1323       H  0.21354446  0.94315511  0.90368900     0.08500
H1324       H  0.19824643  0.98816286  0.87363372     0.12100
H1325       H  0.26956267  0.91141552  0.82917231     0.12000
H1326       H  0.27128970  0.94060308  0.78181217     0.11800
H1327       H  0.24950364  0.98007454  0.74887500     0.12300
H1328       H  0.19481703  0.01375946  0.82366178     0.14300
C1329       C  0.38064831  0.22576004  0.27665775    -0.05800
C1330       C  0.39619704  0.21630060  0.30312089    -0.05700
C1331       C  0.38000882  0.20872514  0.32974168    -0.23900
C1332       C  0.34811639  0.21012180  0.32996278     0.18400
C1333       C  0.33290825  0.22195922  0.30397578     0.15600
C1334       C  0.34923710  0.23033203  0.27799857    -0.18900
C1335       C  0.30131786  0.22295006  0.30317249    -0.20700
C1336       C  0.28471590  0.20996806  0.32673084    -0.13300
C1337       C  0.29914209  0.19681242  0.35228334     0.03400
C1338       C  0.33099259  0.19815160  0.35457738    -0.25400
H1339       H  0.42056167  0.21294549  0.30265695     0.08500
H1340       H  0.39224957  0.20009485  0.34943000     0.12100
H1341       H  0.33712160  0.23828326  0.25789821     0.12000
H1342       H  0.28938715  0.23212816  0.28350501     0.11800
H1343       H  0.26022563  0.20947009  0.32445634     0.12300
H1344       H  0.34229611  0.18812794  0.37420067     0.14300
C1345       C  0.28472913  0.00716803  0.29912544    -0.05800
C1346       C  0.30484699  0.01380045  0.32326711    -0.05700
C1347       C  0.29632626  0.03317199  0.34713082    -0.23900
C1348       C  0.26741375  0.04645399  0.34754355     0.18400
C1349       C  0.24645663  0.03943679  0.32407148     0.15600
C1350       C  0.25523450  0.01979843  0.29987218    -0.18900
C1351       C  0.21754303  0.05309357  0.32479446    -0.20700
C1352       C  0.21036874  0.07504489  0.34724381    -0.13300
C1353       C  0.23183540  0.08345191  0.36960781     0.03400
C1354       C  0.25983680  0.06788840  0.37029728    -0.25400
H1355       H  0.32768977  0.00452857  0.32343818     0.08500
H1356       H  0.31266598  0.03832863  0.36492854     0.12100
H1357       H  0.23939939  0.01471424  0.28160148     0.12000
H1358       H  0.20097725  0.04785274  0.30725009     0.11800
H1359       H  0.18860075  0.08662611  0.34608864     0.12300
H1360       H  0.27670996  0.07402086  0.38728805     0.14300
C1361       C  0.35598879  0.28000326  0.57282768    -0.05800
C1362       C  0.32682421  0.29317004  0.57556586    -0.05700
C1363       C  0.30415579  0.28695943  0.55392971    -0.23900
C1364       C  0.31016090  0.26744187  0.52908816     0.18400
C1365       C  0.34010018  0.25635792  0.52476734     0.15600
C1366       C  0.36283332  0.26300465  0.54637075    -0.18900
C1367       C  0.34634893  0.23675631  0.50016892    -0.20700
C1368       C  0.32284532  0.22616475  0.48154883    -0.13300
C1369       C  0.29262742  0.23530652  0.48668536     0.03400
C1370       C  0.28653016  0.25714396  0.50970731    -0.25400
H1371       H  0.32074697  0.30636445  0.59566554     0.08500
H1372       H  0.28149834  0.29597637  0.55760192     0.12100
H1373       H  0.38516008  0.25278719  0.54381060     0.12000
H1374       H  0.36917609  0.22829978  0.49627024     0.11800
H1375       H  0.32815218  0.20973097  0.46365893     0.12300
H1376       H  0.26331383  0.26428159  0.51391970     0.14300
C1377       C  0.11616946  0.18776305  0.40188931    -0.05800
C1378       C  0.10528821  0.16745958  0.37924162    -0.05700
C1379       C  0.07614369  0.17079615  0.36729290    -0.23900
C1380       C  0.05736211  0.19465167  0.37762749     0.18400
C1381       C  0.06696798  0.21341227  0.40230255     0.15600
C1382       C  0.09624084  0.20955020  0.41465772    -0.18900
C1383       C  0.04798555  0.23716660  0.41263673    -0.20700
C1384       C  0.02093214  0.24375706  0.39725687    -0.13300
C1385       C  0.01227795  0.22667793  0.37126093     0.03400
C1386       C  0.03006103  0.20125455  0.36241775    -0.25400
H1387       H  0.12005760  0.15010017  0.36938970     0.08500
H1388       H  0.06899706  0.15586066  0.34875562     0.12100
H1389       H  0.10436684  0.22528455  0.43212501     0.12000
H1390       H  0.05470433  0.25156512  0.43173538     0.11800
H1391       H  0.00746959  0.26317777  0.40498512     0.12300
H1392       H  0.02348934  0.18752957  0.34277406     0.14300
C1393       C  0.19280404  0.13865779  0.50947151    -0.05800
C1394       C  0.16977589  0.15474483  0.52520889    -0.05700
C1395       C  0.15721246  0.14283676  0.55179862    -0.23900
C1396       C  0.16747794  0.11465181  0.56331264     0.18400
C1397       C  0.18881767  0.09702647  0.54656110     0.15600
C1398       C  0.20120138  0.10902076  0.51947100    -0.18900
C1399       C  0.19892382  0.06876245  0.55836769    -0.20700
C1400       C  0.19065418  0.05989374  0.58787210    -0.13300
C1401       C  0.17200536  0.07910275  0.60582944     0.03400
C1402       C  0.15868672  0.10522621  0.59251098    -0.25400
H1403       H  0.16207492  0.17725196  0.51761728     0.08500
H1404       H  0.14057449  0.15642703  0.56413331     0.12100
H1405       H  0.21850150  0.09616411  0.50729312     0.12000
H1406       H  0.21483006  0.05461032  0.54570161     0.11800
H1407       H  0.20088258  0.03927974  0.59743413     0.12300
H1408       H  0.14393142  0.11999020  0.60593199     0.14300
C1409       C  0.17844714  0.36927524  0.30547754    -0.05800
C1410       C  0.16039446  0.36895729  0.33188686    -0.05700
C1411       C  0.16502975  0.34639643  0.35430385    -0.23900
C1412       C  0.18789962  0.32413654  0.35054602     0.18400
C1413       C  0.20719420  0.32565722  0.32476133     0.15600
C1414       C  0.20233742  0.34815984  0.30250763    -0.18900
C1415       C  0.23012969  0.30370974  0.32078880    -0.20700
C1416       C  0.23254547  0.27906017  0.34098910    -0.13300
C1417       C  0.21226276  0.27609527  0.36549744     0.03400
C1418       C  0.19081549  0.29942345  0.37108372    -0.25400
H1419       H  0.14186558  0.38520223  0.33448664     0.08500
H1420       H  0.15012514  0.34570450  0.37397382     0.12100
H1421       H  0.21650387  0.34856476  0.28227399     0.12000
H1422       H  0.24537204  0.30488114  0.30138306     0.11800
H1423       H  0.24967852  0.26173537  0.33689394     0.12300
H1424       H  0.17511100  0.29720096  0.39003103     0.14300
C1425       C  0.12721534  0.68711774  0.68572667    -0.05800
C1426       C  0.12620869  0.65813790  0.67119807    -0.05700
C1427       C  0.14702615  0.63496678  0.67900543    -0.23900
C1428       C  0.16916719  0.64043460  0.70145121     0.18400
C1429       C  0.16929566  0.66899975  0.71716747     0.15600
C1430       C  0.14827070  0.69193538  0.70939721    -0.18900
C1431       C  0.19147550  0.67488073  0.73933108    -0.20700
C1432       C  0.21473700  0.65364715  0.74427388    -0.13300
C1433       C  0.21590098  0.62591412  0.72761409     0.03400
C1434       C  0.19228010  0.61873987  0.70717115    -0.25400
H1435       H  0.11000378  0.65372823  0.65310618     0.08500
H1436       H  0.14645072  0.61318272  0.66679145     0.12100
H1437       H  0.14902400  0.71398475  0.72117662     0.12000
H1438       H  0.19176244  0.69660238  0.75168594     0.11800
H1439       H  0.23280803  0.65961482  0.76001634     0.12300
H1440       H  0.19335057  0.59763790  0.69383997     0.14300
C1441       C  0.10573485  0.75146620  0.57411625    -0.05800
C1442       C  0.09457934  0.72846406  0.55432494    -0.05700
C1443       C  0.11210374  0.71808246  0.52974549    -0.23900
C1444       C  0.14109596  0.73051293  0.52455017     0.18400
C1445       C  0.15183513  0.75468417  0.54339776     0.15600
C1446       C  0.13406445  0.76511173  0.56786044    -0.18900
C1447       C  0.18080935  0.76709071  0.53841012    -0.20700
C1448       C  0.19958215  0.75475857  0.51584944    -0.13300
C1449       C  0.18976572  0.72977442  0.49778672     0.03400
C1450       C  0.16004125  0.71831828  0.50173955    -0.25400
H1451       H  0.07300093  0.71727920  0.55878641     0.08500
H1452       H  0.10345548  0.69955334  0.51551939     0.12100
H1453       H  0.14299616  0.78279530  0.58294435     0.12000
H1454       H  0.18934018  0.78569582  0.55260035     0.11800
H1455       H  0.22226928  0.76413240  0.51333851     0.12300
H1456       H  0.15207534  0.69909482  0.48800141     0.14300
C1457       C  0.07444082  0.87697327  0.66988501    -0.05800
C1458       C  0.08999528  0.88980079  0.64486687    -0.05700
C1459       C  0.10193207  0.91973984  0.64644060    -0.23900
C1460       C  0.09915667  0.93707288  0.67335012     0.18400
C1461       C  0.08214942  0.92505744  0.69803040     0.15600
C1462       C  0.06942223  0.89531616  0.69592457    -0.18900
C1463       C  0.07980003  0.94216468  0.72511642    -0.20700
C1464       C  0.09557646  0.97005372  0.72838092    -0.13300
C1465       C  0.11391571  0.98141898  0.70458395     0.03400
C1466       C  0.11465011  0.96529149  0.67666521    -0.25400
H1467       H  0.09406194  0.87614637  0.62454966     0.08500
H1468       H  0.11469860  0.92868018  0.62720365     0.12100
H1469       H  0.05778299  0.88555140  0.71551048     0.12000
H1470       H  0.06680984  0.93334380  0.74425304     0.11800
H1471       H  0.09454312  0.98195536  0.75010709     0.12300
H1472       H  0.12849758  0.97386902  0.65801483     0.14300
C1473       C  0.99138595  0.69694683  0.72249321    -0.05800
C1474       C  0.99503079  0.66570108  0.71402647    -0.05700
C1475       C  0.97522904  0.64306392  0.72463069    -0.23900
C1476       C  0.95132140  0.65111625  0.74394803     0.18400
C1477       C  0.94871976  0.68190286  0.75462462     0.15600
C1478       C  0.96896056  0.70468976  0.74399586    -0.18900
C1479       C  0.92461628  0.68969966  0.77399762    -0.20700
C1480       C  0.90172559  0.66811836  0.78003118    -0.13300
C1481       C  0.90277079  0.63833812  0.76700935     0.03400
C1482       C  0.92868933  0.62940768  0.75069769    -0.25400
H1483       H  0.01237353  0.65878461  0.69789591     0.08500
H1484       H  0.97772949  0.61953535  0.71646733     0.12100
H1485       H  0.96603421  0.72857275  0.75093368     0.12000
H1486       H  0.92244556  0.71298246  0.78289038     0.11800
H1487       H  0.88220894  0.67543581  0.79321349     0.12300
H1488       H  0.92993243  0.60648094  0.74073313     0.14300
C1489       C  0.18366843  0.80371757  0.84557048    -0.05800
C1490       C  0.19279145  0.78127588  0.82414403    -0.05700
C1491       C  0.17358445  0.77224877  0.80056315    -0.23900
C1492       C  0.14475006  0.78539097  0.79785514     0.18400
C1493       C  0.13422482  0.80629292  0.82031736     0.15600
C1494       C  0.15377632  0.81528513  0.84424254    -0.18900
C1495       C  0.10492202  0.81888498  0.81744459    -0.20700
C1496       C  0.08717633  0.81239337  0.79159561    -0.13300
C1497       C  0.09866186  0.79342380  0.76833931     0.03400
C1498       C  0.12696624  0.77915941  0.77213268    -0.25400
H1499       H  0.21534541  0.77133647  0.82491730     0.08500
H1500       H  0.18174349  0.75580176  0.78378154     0.12100
H1501       H  0.14629094  0.83231184  0.86075699     0.12000
H1502       H  0.09625051  0.83469355  0.83452485     0.11800
H1503       H  0.06534325  0.82357872  0.78892426     0.12300
H1504       H  0.13574283  0.76425926  0.75425468     0.14300
C1505       C  0.85102459  0.03377357  0.30059351    -0.05800
C1506       C  0.83384489  0.05068375  0.32201994    -0.05700
C1507       C  0.84240340  0.08056287  0.33070327    -0.23900
C1508       C  0.86855252  0.09421120  0.31843893     0.18400
C1509       C  0.88703565  0.07687893  0.29833614     0.15600
C1510       C  0.87812035  0.04686465  0.28940383    -0.18900
C1511       C  0.91354819  0.09033351  0.28660764    -0.20700
C1512       C  0.92088310  0.12104671  0.29348314    -0.13300
C1513       C  0.90173110  0.13917450  0.31198469     0.03400
C1514       C  0.87587658  0.12525037  0.32500935    -0.25400
H1515       H  0.81286973  0.04138744  0.33114065     0.08500
H1516       H  0.82806595  0.09331339  0.34636326     0.12100
H1517       H  0.89172668  0.03416844  0.27305347     0.12000
H1518       H  0.92817021  0.07740896  0.27136840     0.11800
H1519       H  0.94087400  0.13107145  0.28298098     0.12300
H1520       H  0.86093548  0.13881886  0.33939364     0.14300
C1521       C  0.78334585  0.79110056  0.10186335    -0.05800
C1522       C  0.75656064  0.80295351  0.11463483    -0.05700
C1523       C  0.75736458  0.82885536  0.13363700    -0.23900
C1524       C  0.78512508  0.84306894  0.14060926     0.18400
C1525       C  0.81200039  0.83287369  0.12603351     0.15600
C1526       C  0.81092979  0.80688400  0.10656076    -0.18900
C1527       C  0.83970964  0.84737381  0.13311375    -0.20700
C1528       C  0.84108365  0.87001498  0.15600406    -0.13300
C1529       C  0.81485280  0.87826161  0.17230439     0.03400
C1530       C  0.78675574  0.86558977  0.16366480    -0.25400
H1531       H  0.73523838  0.79077994  0.11160694     0.08500
H1532       H  0.73653621  0.83652806  0.14440713     0.12100
H1533       H  0.83177319  0.79741058  0.09729234     0.12000
H1534       H  0.86053532  0.84010800  0.12207741     0.11800
H1535       H  0.86296991  0.87943728  0.16247564     0.12300
H1536       H  0.76643546  0.87194136  0.17617495     0.14300
C1537       C  0.98668308  0.80487554  0.22519155    -0.05800
C1538       C  0.96455986  0.79064291  0.24357754    -0.05700
C1539       C  0.94107261  0.80805736  0.25647475    -0.23900
C1540       C  0.93931045  0.84006094  0.25129273     0.18400
C1541       C  0.96227924  0.85493109  0.23424339     0.15600
C1542       C  0.98584451  0.83728330  0.22137406    -0.18900
C1543       C  0.96043662  0.88695518  0.22910459    -0.20700
C1544       C  0.93498414  0.90368597  0.23886732    -0.13300
C1545       C  0.91099774  0.88873484  0.25412414     0.03400
C1546       C  0.91408983  0.85707557  0.26141400    -0.25400
H1547       H  0.96459658  0.76580489  0.24684772     0.08500
H1548       H  0.92367377  0.79630250  0.26959493     0.12100
H1549       H  0.00289293  0.84863722  0.20744380     0.12000
H1550       H  0.97799942  0.89880252  0.21628982     0.11800
H1551       H  0.93330466  0.92793038  0.23287165     0.12300
H1552       H  0.89594162  0.84511587  0.27329113     0.14300
C1553       C  0.76334313  0.01322674  0.20373739    -0.05800
C1554       C  0.74295298  0.03513331  0.21566139    -0.05700
C1555       C  0.73059087  0.05815470  0.19696127    -0.23900
C1556       C  0.73840486  0.05977036  0.16594506     0.18400
C1557       C  0.75722370  0.03671238  0.15321544     0.15600
C1558       C  0.76939363  0.01347005  0.17211034    -0.18900
C1559       C  0.76505002  0.03840175  0.12219572    -0.20700
C1560       C  0.75656490  0.06408127  0.10466694    -0.13300
C1561       C  0.73969160  0.08835142  0.11767857     0.03400
C1562       C  0.72936947  0.08514214  0.14801134    -0.25400
H1563       H  0.73765737  0.03542898  0.23980754     0.08500
H1564       H  0.71598117  0.07549873  0.20706940     0.12100
H1565       H  0.78471197  0.99649066  0.16244148     0.12000
H1566       H  0.77913080  0.02071197  0.11191275     0.11800
H1567       H  0.76463695  0.06569280  0.08136340     0.12300
H1568       H  0.71629723  0.10351988  0.15848342     0.14300
C1569       C  0.62418860  0.82861303  0.31478279    -0.05800
C1570       C  0.62671402  0.85380212  0.33481263    -0.05700
C1571       C  0.64831882  0.87702248  0.32922760    -0.23900
C1572       C  0.66763632  0.87503412  0.30372002     0.18400
C1573       C  0.66344104  0.85079592  0.28245918     0.15600
C1574       C  0.64147636  0.82824035  0.28790415    -0.18900
C1575       C  0.68288186  0.84793898  0.25734609    -0.20700
C1576       C  0.70800979  0.86726672  0.25470889    -0.13300
C1577       C  0.71345930  0.89030068  0.27656338     0.03400
C1578       C  0.69246485  0.89521310  0.30023336    -0.25400
H1579       H  0.61337211  0.85454405  0.35556684     0.08500
H1580       H  0.65104669  0.89553536  0.34567386     0.12100
H1581       H  0.63924420  0.80904939  0.27213554     0.12000
H1582       H  0.67977384  0.82951057  0.24083506     0.11800
H1583       H  0.72407356  0.86331990  0.23637842     0.12300
H1584       H  0.69696346  0.91277105  0.31732463     0.14300
C1585       C  0.96064874  0.78302698  0.62513450    -0.05800
C1586       C  0.94794060  0.75967827  0.60669637    -0.05700
C1587       C  0.91945194  0.76347781  0.59317486    -0.23900
C1588       C  0.90290386  0.79071656  0.59776582     0.18400
C1589       C  0.91566230  0.81479591  0.61549825     0.15600
C1590       C  0.94447393  0.81088126  0.62896934    -0.18900
C1591       C  0.89883401  0.84186308  0.62042427    -0.20700
C1592       C  0.86911742  0.84430998  0.60935320    -0.13300
C1593       C  0.85581529  0.82001847  0.59263890     0.03400
C1594       C  0.87327680  0.79365683  0.58607295    -0.25400
H1595       H  0.95964707  0.73792994  0.60336583     0.08500
H1596       H  0.91003013  0.74473467  0.57973835     0.12100
H1597       H  0.95383752  0.82912247  0.64311944     0.12000
H1598       H  0.90821173  0.86066374  0.63381205     0.11800
H1599       H  0.85612079  0.86486562  0.61470925     0.12300
H1600       H  0.86313373  0.77458826  0.57361856     0.14300
C1601       C  0.77644156  0.87792521  0.47844011    -0.05800
C1602       C  0.76199295  0.90581620  0.47045220    -0.05700
C1603       C  0.76747472  0.91987784  0.44224003    -0.23900
C1604       C  0.78737711  0.90627006  0.42122355     0.18400
C1605       C  0.80352410  0.87934068  0.42960496     0.15600
C1606       C  0.79826795  0.86553662  0.45829687    -0.18900
C1607       C  0.82333488  0.86572142  0.40844730    -0.20700
C1608       C  0.82553705  0.87740693  0.37869035    -0.13300
C1609       C  0.80827104  0.90320812  0.36952062     0.03400
C1610       C  0.79009654  0.91821456  0.39144575    -0.25400
H1611       H  0.74541871  0.91622495  0.48553403     0.08500
H1612       H  0.75513064  0.94071281  0.43635845     0.12100
H1613       H  0.80981924  0.84419936  0.46409081     0.12000
H1614       H  0.83616571  0.84524153  0.41449302     0.11800
H1615       H  0.83998702  0.86549490  0.36252304     0.12300
H1616       H  0.77668457  0.93815691  0.38492116     0.14300
C1617       C  0.66454259  0.82247976  0.63709458    -0.05800
C1618       C  0.64046344  0.84340383  0.64100624    -0.05700
C1619       C  0.61728647  0.83704495  0.66212332    -0.23900
C1620       C  0.61793699  0.80966428  0.67947561     0.18400
C1621       C  0.64104265  0.78767903  0.67390717     0.15600
C1622       C  0.66391495  0.79414907  0.65273767    -0.18900
C1623       C  0.64222783  0.76039302  0.69105856    -0.20700
C1624       C  0.62238644  0.75608655  0.71539845    -0.13300
C1625       C  0.60067994  0.77863836  0.72260088     0.03400
C1626       C  0.59744023  0.80476671  0.70371716    -0.25400
H1627       H  0.64039893  0.86528278  0.62895014     0.08500
H1628       H  0.59965738  0.85409720  0.66583292     0.12100
H1629       H  0.68212337  0.77762303  0.64945532     0.12000
H1630       H  0.65969967  0.74327389  0.68687328     0.11800
H1631       H  0.62522268  0.73596631  0.72989974     0.12300
H1632       H  0.58101618  0.82246105  0.70958985     0.14300
C1633       C  0.74685005  0.92716910  0.62433366    -0.05800
C1634       C  0.73415161  0.95332776  0.61016663    -0.05700
C1635       C  0.72520990  0.97883948  0.62756728    -0.23900
C1636       C  0.72848462  0.97837882  0.65941098     0.18400
C1637       C  0.74376905  0.95345418  0.67349639     0.15600
C1638       C  0.75339144  0.92832487  0.65579904    -0.18900
C1639       C  0.74705899  0.95290985  0.70533322    -0.20700
C1640       C  0.73333859  0.97565201  0.72323376    -0.13300
C1641       C  0.71612833  0.99924484  0.70956485     0.03400
C1642       C  0.71490188  0.00124079  0.67753909    -0.25400
H1643       H  0.72920403  0.95326140  0.58594597     0.08500
H1644       H  0.71398651  0.99802361  0.61634748     0.12100
H1645       H  0.76348548  0.90851314  0.66707809     0.12000
H1646       H  0.75891628  0.93407384  0.71647855     0.11800
H1647       H  0.73476888  0.97376813  0.74785530     0.12300
H1648       H  0.70206882  0.01966266  0.66679164     0.14300
C1649       C  0.80284865  0.64177439  0.67909849    -0.05800
C1650       C  0.82385819  0.64508988  0.65516750    -0.05700
C1651       C  0.81811259  0.66566191  0.63117109    -0.23900
C1652       C  0.79132966  0.68322114  0.63085198     0.18400
C1653       C  0.76925814  0.67846075  0.65386719     0.15600
C1654       C  0.77504575  0.65760370  0.67758411    -0.18900
C1655       C  0.74271191  0.69627300  0.65407505    -0.20700
C1656       C  0.73933171  0.72050599  0.63336921    -0.13300
C1657       C  0.76198143  0.72665730  0.61167660     0.03400
C1658       C  0.78726528  0.70709337  0.60946206    -0.25400
H1659       H  0.84533246  0.63292345  0.65576057     0.08500
H1660       H  0.83521294  0.66887943  0.61365694     0.12100
H1661       H  0.75845579  0.65481445  0.69569671     0.12000
H1662       H  0.72554760  0.69282828  0.67149949     0.11800
H1663       H  0.71996056  0.73576842  0.63553684     0.12300
H1664       H  0.80506987  0.71235605  0.59314706     0.14300
C1665       C  0.67713356  0.78624583  0.50152354    -0.05800
C1666       C  0.64749729  0.79849694  0.50324031    -0.05700
C1667       C  0.62468298  0.78866623  0.48333241    -0.23900
C1668       C  0.63083025  0.76625639  0.46117006     0.18400
C1669       C  0.65975200  0.75201505  0.46059245     0.15600
C1670       C  0.68273076  0.76197802  0.48083696    -0.18900
C1671       C  0.66566117  0.72930121  0.43859971    -0.20700
C1672       C  0.64427770  0.72286842  0.41582492    -0.13300
C1673       C  0.61645963  0.73899127  0.41447455     0.03400
C1674       C  0.60925949  0.75944947  0.43835608    -0.25400
H1675       H  0.64208512  0.81671345  0.51929503     0.08500
H1676       H  0.60255742  0.79955322  0.48448363     0.12100
H1677       H  0.70523810  0.75194810  0.47941098     0.12000
H1678       H  0.68745448  0.71769666  0.43798639     0.11800
H1679       H  0.65046685  0.70669146  0.39801451     0.12300
H1680       H  0.58801529  0.77208655  0.43778103     0.14300
loop_ 
_geom_bond_atom_site_label_1 
_geom_bond_atom_site_label_2 
_geom_bond_distance 
_geom_bond_site_symmetry_2 
_ccdc_geom_bond_type 
Fe1          O17   2.044       .  S
Fe1           O7   2.049       .  S
Fe1          O14   2.055       .  S
Fe1           O6   2.049       .  S
Fe1          O12   1.955       .  S
Fe2           O5   2.046       .  S
Fe2           O9   2.094       .  S
Fe2          O13   2.063       .  S
Fe2          O18   2.078       .  S
Fe2          O12   1.965       .  S
Fe3          O21   2.101       .  S
Fe3           O8   2.076       .  S
Fe3          O15   2.070       .  S
Fe3           O4   2.106       .  S
Fe3          O12   1.977       .  S
O4           C11   1.279       .  A
O5           C19   1.266       .  A
O6           C11   1.269       .  A
O7           C10   1.264       .  A
O8           C20   1.273       .  A
O9           C22   1.275       .  A
C10          O15   1.266       .  A
C10        C1657   1.463       .  S
C11        C1593   1.483       .  S
O13          C16   1.266       .  A
O14          C16   1.265       .  A
C16        C1633   1.482       .  S
O17          C22   1.269       .  A
O18          C20   1.275       .  A
C19          O21   1.275       .  A
C19        C1665   1.493       .  S
C20        C1601   1.491       .  S
C22        C1617   1.478       .  S
Fe23         O39   2.049       .  S
Fe23         O29   2.056       .  S
Fe23         O36   2.068       .  S
Fe23         O28   2.059       .  S
Fe23         O34   1.958       .  S
Fe24         O27   2.084       .  S
Fe24         O31   2.061       .  S
Fe24         O35   2.093       .  S
Fe24         O40   2.052       .  S
Fe24         O34   1.974       .  S
Fe25         O43   2.068       .  S
Fe25         O30   2.099       .  S
Fe25         O37   2.097       .  S
Fe25         O26   2.080       .  S
Fe25         O34   1.975       .  S
O26          C33   1.272       .  A
O27          C41   1.274       .  A
O28          C33   1.267       .  A
O29          C32   1.269       .  A
O30          C42   1.276   1_565  A
O31          C44   1.264       .  A
C32          O37   1.274       .  A
C32        C1529   1.478       .  S
C33        C1545   1.489       .  S
O35          C38   1.277       .  A
O36          C38   1.273       .  A
C38        C1609   1.492       .  S
O39          C44   1.264       .  A
O40          C42   1.268   1_565  A
C41          O43   1.271       .  A
C41        C1553   1.489   1_565  S
C42        C1505   1.491       .  S
C44        C1577   1.464       .  S
Fe45         O61   2.063       .  S
Fe45         O51   2.045       .  S
Fe45         O58   2.053       .  S
Fe45         O50   2.070       .  S
Fe45         O56   1.944       .  S
Fe46         O49   2.094       .  S
Fe46         O53   2.069       .  S
Fe46         O57   2.098       .  S
Fe46         O62   2.073   1_455  S
Fe46         O56   1.965       .  S
Fe47         O65   2.026       .  S
Fe47         O52   2.083       .  S
Fe47         O59   2.090       .  S
Fe47         O48   2.055       .  S
Fe47         O56   1.950       .  S
O48          C55   1.265       .  A
O49          C63   1.273       .  A
O50          C55   1.268       .  A
O51          C54   1.269       .  A
O52          C64   1.276   1_455  A
O53          C66   1.268       .  A
C54          O59   1.275       .  A
C54        C1425   1.481       .  S
C55        C1441   1.481       .  S
O57          C60   1.277       .  A
O58          C60   1.270       .  A
C60        C1457   1.480       .  S
O61          C66   1.268       .  A
O62          C64   1.274       .  A
C63          O65   1.262       .  A
C63        C1473   1.481   1_455  S
C64        C1585   1.489       .  S
C66        C1497   1.470       .  S
Fe67         O83   2.052       .  S
Fe67         O73   2.053       .  S
Fe67         O80   2.036       .  S
Fe67         O72   2.053       .  S
Fe67         O78   1.938       .  S
Fe68         O71   2.090       .  S
Fe68         O75   2.067       .  S
Fe68         O79   2.089       .  S
Fe68         O84   2.055       .  S
Fe68         O78   1.955       .  S
Fe69         O87   2.054       .  S
Fe69         O74   2.082       .  S
Fe69         O81   2.091       .  S
Fe69         O70   2.089       .  S
Fe69         O78   1.950       .  S
O70          C77   1.271       .  A
O71          C85   1.269       .  A
O72          C77   1.264       .  A
O73          C76   1.267       .  A
O74          C86   1.283       .  A
O75          C88   1.272       .  A
C76          O81   1.274       .  A
C76        C1337   1.475       .  S
C77        C1353   1.486       .  S
O79          C82   1.272       .  A
O80          C82   1.264       .  A
C82        C1377   1.479       .  S
O83          C88   1.271       .  A
O84          C86   1.276       .  A
C85          O87   1.264       .  A
C85        C1369   1.484       .  S
C86        C1393   1.477       .  S
C88        C1417   1.465       .  S
Fe89        O105   2.049       .  S
Fe89         O95   2.053       .  S
Fe89        O102   2.050       .  S
Fe89         O94   2.054       .  S
Fe89        O100   1.945       .  S
Fe90         O93   2.067       .  S
Fe90         O97   2.080       .  S
Fe90        O101   2.084       .  S
Fe90        O106   2.083       .  S
Fe90        O100   1.961       .  S
Fe91        O109   2.043       .  S
Fe91         O96   2.065       .  S
Fe91        O103   2.083       .  S
Fe91         O92   2.064       .  S
Fe91        O100   1.958       .  S
O92          C99   1.269       .  A
O93         C107   1.267       .  A
O94          C99   1.271       .  A
O95          C98   1.265       .  A
O96         C108   1.274       .  A
O97         C110   1.276       .  A
C98         O103   1.269       .  A
C98        C1265   1.475       .  S
C99        C1401   1.474       .  S
O101        C104   1.270       .  A
O102        C104   1.263       .  A
C104       C1297   1.490       .  S
O105        C110   1.273       .  A
O106        C108   1.277       .  A
C107        O109   1.264       .  A
C107       C1321   1.478   1_545  S
C108       C1465   1.484   1_545  S
C110       C1289   1.477       .  S
Fe111       O127   2.074       .  S
Fe111       O117   2.044       .  S
Fe111       O124   2.060       .  S
Fe111       O116   2.080       .  S
Fe111       O122   1.959       .  S
Fe112       O115   2.072       .  S
Fe112       O119   2.063       .  S
Fe112       O123   2.084       .  S
Fe112       O128   2.056       .  S
Fe112       O122   1.963       .  S
Fe113       O131   2.064       .  S
Fe113       O118   2.092       .  S
Fe113       O125   2.094       .  S
Fe113       O114   2.058       .  S
Fe113       O122   1.966       .  S
O114        C121   1.266       .  A
O115        C129   1.267       .  A
O116        C121   1.269       .  A
O117        C120   1.271       .  A
O118        C130   1.280       .  A
O119        C132   1.267       .  A
C120        O125   1.277       .  A
C120       C1257   1.475       .  S
C121       C1513   1.489       .  S
O123        C126   1.273       .  A
O124        C126   1.269       .  A
C126       C1217   1.486       .  S
O127        C132   1.270       .  A
O128        C130   1.273       .  A
C129        O131   1.265       .  A
C129       C1241   1.488       .  S
C130       C1385   1.485   1_655  S
C132       C1201   1.465       .  S
Fe133       O149   2.046       .  S
Fe133       O139   2.068       .  S
Fe133       O146   2.072       .  S
Fe133       O138   2.060       .  S
Fe133       O144   1.952       .  S
Fe134       O137   2.064       .  S
Fe134       O141   2.081       .  S
Fe134       O145   2.063       .  S
Fe134       O150   2.073       .  S
Fe134       O144   1.969       .  S
Fe135       O153   2.069       .  S
Fe135       O140   2.080       .  S
Fe135       O147   2.077       .  S
Fe135       O136   2.089       .  S
Fe135       O144   1.968       .  S
O136        C143   1.271       .  A
O137        C151   1.265       .  A
O138        C143   1.266       .  A
O139        C142   1.273       .  A
O140        C152   1.279       .  A
O141        C154   1.272       .  A
C142        O147   1.273       .  A
C142       C1177   1.473       .  S
C143       C1193   1.494       .  S
O145        C148   1.267       .  A
O146        C148   1.270       .  A
C148       C1145   1.487       .  S
O149        C154   1.269       .  A
O150        C152   1.278       .  A
C151        O153   1.267       .  A
C151       C1225   1.486       .  S
C152       C1129   1.485       .  S
C154       C1161   1.472       .  S
Fe155       O171   2.037       .  S
Fe155       O161   2.067       .  S
Fe155       O168   2.062       .  S
Fe155       O160   2.041       .  S
Fe155       O166   1.939       .  S
Fe156       O159   2.052       .  S
Fe156       O163   2.084       .  S
Fe156       O167   2.065       .  S
Fe156       O172   2.081       .  S
Fe156       O166   1.953       .  S
Fe157       O175   2.078       .  S
Fe157       O162   2.060       .  S
Fe157       O169   2.069       .  S
Fe157       O158   2.107       .  S
Fe157       O166   1.951       .  S
O158        C165   1.277       .  A
O159        C173   1.265       .  A
O160        C165   1.267       .  A
O161        C164   1.269       .  A
O162        C174   1.275       .  A
O163        C176   1.276       .  A
C164        O169   1.267       .  A
C164       C1209   1.469       .  S
C165       C1121   1.484       .  S
O167        C170   1.267       .  A
O168        C170   1.266       .  A
C170       C1089   1.484       .  S
O171        C176   1.270       .  A
O172        C174   1.276       .  A
C173        O175   1.271       .  A
C173       C1113   1.483       .  S
C174       C1065   1.480       .  S
C176       C1073   1.475       .  S
Fe177       O193   2.047       .  S
Fe177       O183   2.061       .  S
Fe177       O190   2.053       .  S
Fe177       O182   2.059       .  S
Fe177       O188   1.957       .  S
Fe178       O181   2.094       .  S
Fe178       O185   2.084       .  S
Fe178       O189   2.085       .  S
Fe178       O194   2.076       .  S
Fe178       O188   1.976       .  S
Fe179       O197   2.052       .  S
Fe179       O184   2.076       .  S
Fe179       O191   2.078       .  S
Fe179       O180   2.074       .  S
Fe179       O188   1.968       .  S
O180        C187   1.268       .  A
O181        C195   1.271       .  A
O182        C187   1.264       .  A
O183        C186   1.271       .  A
O184        C196   1.278       .  A
O185        C198   1.274       .  A
C186        O191   1.273       .  A
C186       C1025   1.469       .  S
C187       C1041   1.488       .  S
O189        C192   1.271       .  A
O190        C192   1.267       .  A
C192       C1001   1.484       .  S
O193        C198   1.268       .  A
O194        C196   1.278       .  A
C195        O197   1.264       .  A
C195       C1009   1.494       .  S
C196        C985   1.482       .  S
C198       C1433   1.473       .  S
Fe199       O215   2.077       .  S
Fe199       O205   2.051       .  S
Fe199       O212   2.052       .  S
Fe199       O204   2.068       .  S
Fe199       O210   1.949       .  S
Fe200       O203   2.069       .  S
Fe200       O207   2.071       .  S
Fe200       O211   2.092       .  S
Fe200       O216   2.081       .  S
Fe200       O210   1.964       .  S
Fe201       O219   2.073       .  S
Fe201       O206   2.071       .  S
Fe201       O213   2.082       .  S
Fe201       O202   2.067       .  S
Fe201       O210   1.964       .  S
O202        C209   1.270       .  A
O203        C217   1.269       .  A
O204        C209   1.272       .  A
O205        C208   1.267       .  A
O206        C218   1.275       .  A
O207        C220   1.271       .  A
C208        O213   1.270       .  A
C208        C961   1.478       .  S
C209        C977   1.478       .  S
O211        C214   1.272       .  A
O212        C214   1.264       .  A
C214       C1361   1.489       .  S
O215        C220   1.274       .  A
O216        C218   1.277       .  A
C217        O219   1.270       .  A
C217        C945   1.487       .  S
C218       C1137   1.485       .  S
C220       C1273   1.468       .  S
Fe221       O237   2.042       .  S
Fe221       O227   2.036       .  S
Fe221       O234   2.048       .  S
Fe221       O226   2.043       .  S
Fe221       O232   1.959       .  S
Fe222       O225   2.067       .  S
Fe222       O229   2.061       .  S
Fe222       O233   2.081       .  S
Fe222       O238   2.048       .  S
Fe222       O232   1.986       .  S
Fe223       O241   2.057       .  S
Fe223       O228   2.094       .  S
Fe223       O235   2.088       .  S
Fe223       O224   2.088       .  S
Fe223       O232   1.983       .  S
O224        C231   1.271       .  A
O225        C239   1.268       .  A
O226        C231   1.262       .  A
O227        C230   1.269       .  A
O228        C240   1.278       .  A
O229        C242   1.262       .  A
C230        O235   1.274       .  A
C230       C1569   1.472       .  S
C231       C1673   1.491       .  S
O233        C236   1.273       .  A
O234        C236   1.269       .  A
C236       C1057   1.472       .  S
O237        C242   1.261       .  A
O238        C240   1.269       .  A
C239        O241   1.267       .  A
C239        C929   1.482       .  S
C240        C897   1.487       .  S
C242        C921   1.462       .  S
Fe243       O259   2.059       .  S
Fe243       O249   2.060       .  S
Fe243       O256   2.061       .  S
Fe243       O248   2.074       .  S
Fe243       O254   1.967       .  S
Fe244       O247   2.058       .  S
Fe244       O251   2.087       .  S
Fe244       O255   2.067       .  S
Fe244       O260   2.089       .  S
Fe244       O254   1.984       .  S
Fe245       O263   2.061       .  S
Fe245       O250   2.065       .  S
Fe245       O257   2.077       .  S
Fe245       O246   2.067       .  S
Fe245       O254   1.969       .  S
O246        C253   1.270       .  A
O247        C261   1.266       .  A
O248        C253   1.273       .  A
O249        C252   1.265       .  A
O250        C262   1.274       .  A
O251        C264   1.274       .  A
C252        O257   1.269       .  A
C252        C881   1.470       .  S
C253        C905   1.487       .  S
O255        C258   1.267       .  A
O256        C258   1.267       .  A
C258        C873   1.487       .  S
O259        C264   1.272       .  A
O260        C262   1.276       .  A
C261        O263   1.267       .  A
C261       C1449   1.483       .  S
C262        C993   1.490       .  S
C264        C857   1.482       .  S
Fe265       O281   2.044       .  S
Fe265       O271   2.035       .  S
Fe265       O278   2.050       .  S
Fe265       O270   2.038       .  S
Fe265       O276   1.961       .  S
Fe266       O269   2.045       .  S
Fe266       O273   2.083       .  S
Fe266       O277   2.064       .  S
Fe266       O282   2.061       .  S
Fe266       O276   1.969       .  S
Fe267       O285   2.117       .  S
Fe267       O272   2.084       .  S
Fe267       O279   2.085       .  S
Fe267       O268   2.123       .  S
Fe267       O276   1.982       .  S
O268        C275   1.283       .  A
O269        C283   1.269       .  A
O270        C275   1.268       .  A
O271        C274   1.260       .  A
O272        C284   1.272       .  A
O273        C286   1.271       .  A
C274        O279   1.267       .  A
C274        C833   1.469       .  S
C275        C801   1.488       .  S
O277        C280   1.268       .  A
O278        C280   1.264       .  A
C280       C1481   1.478       .  S
O281        C286   1.266       .  A
O282        C284   1.269       .  A
C283        O285   1.281       .  A
C283       C1185   1.496       .  S
C284        C825   1.491       .  S
C286       C1649   1.477       .  S
Fe287       O303   2.065       .  S
Fe287       O293   2.050       .  S
Fe287       O300   2.046       .  S
Fe287       O292   2.067       .  S
Fe287       O298   1.941       .  S
Fe288       O291   2.111       .  S
Fe288       O295   2.073       .  S
Fe288       O299   2.121       .  S
Fe288       O304   2.049       .  S
Fe288       O298   1.956       .  S
Fe289       O307   2.040       .  S
Fe289       O294   2.095       .  S
Fe289       O301   2.109       .  S
Fe289       O290   2.054       .  S
Fe289       O298   1.954       .  S
O290        C297   1.264       .  A
O291        C305   1.279       .  A
O292        C297   1.267       .  A
O293        C296   1.272       .  A
O294        C306   1.276       .  A
O295        C308   1.266       .  A
C296        O301   1.279       .  A
C296        C769   1.481       .  S
C297        C793   1.477       .  S
O299        C302   1.283       .  A
O300        C302   1.271       .  A
C302        C817   1.489       .  S
O303        C308   1.267       .  A
O304        C306   1.269       .  A
C305        O307   1.267       .  A
C305       C1305   1.491       .  S
C306        C753   1.487   1_655  S
C308       C1169   1.478       .  S
Fe309       O325   2.048       .  S
Fe309       O315   2.059       .  S
Fe309       O322   2.058       .  S
Fe309       O314   2.054       .  S
Fe309       O320   1.968       .  S
Fe310       O313   2.072       .  S
Fe310       O317   2.091       .  S
Fe310       O321   2.075       .  S
Fe310       O326   2.090       .  S
Fe310       O320   1.983       .  S
Fe311       O329   2.061       .  S
Fe311       O316   2.056       .  S
Fe311       O323   2.061       .  S
Fe311       O312   2.074       .  S
Fe311       O320   1.978       .  S
O312        C319   1.270       .  A
O313        C327   1.272       .  A
O314        C319   1.266       .  A
O315        C318   1.269       .  A
O316        C328   1.268       .  A
O317        C330   1.270       .  A
C318        O323   1.267       .  A
C318        C913   1.472       .  S
C319       C1105   1.484       .  S
O321        C324   1.273       .  A
O322        C324   1.270       .  A
C324        C729   1.477       .  S
O325        C330   1.263       .  A
O326        C328   1.274       .  A
C327        O329   1.270       .  A
C327        C745   1.484   1_554  S
C328        C809   1.492   1_554  S
C330       C1521   1.474       .  S
Fe331       O347   2.057       .  S
Fe331       O337   2.049       .  S
Fe331       O344   2.064       .  S
Fe331       O336   2.074       .  S
Fe331       O342   1.968       .  S
Fe332       O335   2.066       .  S
Fe332       O339   2.073       .  S
Fe332       O343   2.065       .  S
Fe332       O348   2.075       .  S
Fe332       O342   1.982       .  S
Fe333       O351   2.059       .  S
Fe333       O338   2.065       .  S
Fe333       O345   2.063       .  S
Fe333       O334   2.058       .  S
Fe333       O342   1.974       .  S
O334        C341   1.267       .  A
O335        C349   1.266       .  A
O336        C341   1.269       .  A
O337        C340   1.269       .  A
O338        C350   1.274       .  A
O339        C352   1.269       .  A
C340        O345   1.269       .  A
C340       C1409   1.466       .  S
C341       C1233   1.490       .  S
O343        C346   1.269       .  A
O344        C346   1.270       .  A
C346        C681   1.484       .  S
O347        C352   1.268       .  A
O348        C350   1.275       .  A
C349        O351   1.264       .  A
C349        C865   1.485       .  S
C350        C689   1.483       .  S
C352        C705   1.467       .  S
Fe353       O369   2.041       .  S
Fe353       O359   2.034       .  S
Fe353       O366   2.045       .  S
Fe353       O358   2.046       .  S
Fe353       O364   1.964       .  S
Fe354       O357   2.055       .  S
Fe354       O361   2.065       .  S
Fe354       O365   2.072       .  S
Fe354       O370   2.053       .  S
Fe354       O364   1.984       .  S
Fe355       O373   2.082       .  S
Fe355       O360   2.082       .  S
Fe355       O367   2.097       .  S
Fe355       O356   2.086       .  S
Fe355       O364   1.986       .  S
O356        C363   1.274       .  A
O357        C371   1.266       .  A
O358        C363   1.266       .  A
O359        C362   1.264       .  A
O360        C372   1.275       .  A
O361        C374   1.267       .  A
C362        O367   1.272       .  A
C362        C849   1.480       .  S
C363        C697   1.484       .  S
O365        C368   1.268       .  A
O366        C368   1.263       .  A
C368        C665   1.483       .  S
O369        C374   1.267       .  A
O370        C372   1.271       .  A
C371        O373   1.272       .  A
C371       C1537   1.486   1_455  S
C372        C721   1.484   1_455  S
C374        C649   1.464       .  S
Fe375       O391   2.052       .  S
Fe375       O381   2.037       .  S
Fe375       O388   2.048       .  S
Fe375       O380   2.059       .  S
Fe375       O386   1.960       .  S
Fe376       O379   2.076       .  S
Fe376       O383   2.089       .  S
Fe376       O387   2.091       .  S
Fe376       O392   2.095       .  S
Fe376       O386   1.984       .  S
Fe377       O395   2.062       .  S
Fe377       O382   2.051       .  S
Fe377       O389   2.069       .  S
Fe377       O378   2.074       .  S
Fe377       O386   1.981       .  S
O378        C385   1.269       .  A
O379        C393   1.267       .  A
O380        C385   1.268       .  A
O381        C384   1.265       .  A
O382        C394   1.273       .  A
O383        C396   1.276       .  A
C384        O389   1.268       .  A
C384       C1281   1.469       .  S
C385        C761   1.487       .  S
O387        C390   1.271       .  A
O388        C390   1.263       .  A
C390       C1017   1.493       .  S
O391        C396   1.271       .  A
O392        C394   1.281       .  A
C393        O395   1.265       .  A
C393        C633   1.489   1_556  S
C394        C673   1.485   1_556  S
C396        C969   1.479       .  S
Fe397       O413   2.059       .  S
Fe397       O403   2.042       .  S
Fe397       O410   2.062       .  S
Fe397       O402   2.060       .  S
Fe397       O408   1.963       .  S
Fe398       O401   2.042       .  S
Fe398       O405   2.081       .  S
Fe398       O409   2.060       .  S
Fe398       O414   2.066       .  S
Fe398       O408   1.978       .  S
Fe399       O417   2.102       .  S
Fe399       O404   2.070       .  S
Fe399       O411   2.073       .  S
Fe399       O400   2.100       .  S
Fe399       O408   1.990       .  S
O400        C407   1.278       .  A
O401        C415   1.266       .  A
O402        C407   1.272       .  A
O403        C406   1.263       .  A
O404        C416   1.271       .  A
O405        C418   1.271       .  A
C406        O411   1.266       .  A
C406       C1625   1.468       .  S
C407        C593   1.489       .  S
O409        C412   1.266       .  A
O410        C412   1.266       .  A
C412        C737   1.484       .  S
O413        C418   1.270       .  A
O414        C416   1.270       .  A
C415        O417   1.275       .  A
C415       C1049   1.492       .  S
C416        C609   1.486       .  S
C418        C841   1.477       .  S
Fe419       O435   2.071       .  S
Fe419       O425   2.039       .  S
Fe419       O432   2.046       .  S
Fe419       O424   2.065       .  S
Fe419       O430   1.940       .  S
Fe420       O423   2.079       .  S
Fe420       O427   2.071       .  S
Fe420       O431   2.097       .  S
Fe420       O436   2.063       .  S
Fe420       O430   1.952       .  S
Fe421       O439   2.046       .  S
Fe421       O426   2.095       .  S
Fe421       O433   2.104       .  S
Fe421       O422   2.054       .  S
Fe421       O430   1.955       .  S
O422        C429   1.265       .  A
O423        C437   1.271       .  A
O424        C429   1.268       .  A
O425        C428   1.269       .  A
O426        C438   1.279       .  A
O427        C440   1.270       .  A
C428        O433   1.278       .  A
C428       C1489   1.485       .  S
C429       C1313   1.479       .  S
O431        C434   1.275       .  A
O432        C434   1.267       .  A
C434        C617   1.484       .  S
O435        C440   1.271       .  A
O436        C438   1.275       .  A
C437        O439   1.264       .  A
C437        C657   1.479       .  S
C438        C577   1.489   1_556  S
C440       C1033   1.476       .  S
Fe441       O457   2.049       .  S
Fe441       O447   2.050       .  S
Fe441       O454   2.056       .  S
Fe441       O446   2.058       .  S
Fe441       O452   1.967       .  S
Fe442       O445   2.059       .  S
Fe442       O449   2.087       .  S
Fe442       O453   2.066       .  S
Fe442       O458   2.084       .  S
Fe442       O452   1.989       .  S
Fe443       O461   2.060       .  S
Fe443       O448   2.070       .  S
Fe443       O455   2.068       .  S
Fe443       O444   2.076       .  S
Fe443       O452   1.984       .  S
O444        C451   1.272       .  A
O445        C459   1.266       .  A
O446        C451   1.268       .  A
O447        C450   1.266       .  A
O448        C460   1.273       .  A
O449        C462   1.271       .  A
C450        O455   1.266       .  A
C450       C1153   1.473       .  S
C451        C953   1.482       .  S
O453        C456   1.269       .  A
O454        C456   1.267       .  A
C456        C561   1.478       .  S
O457        C462   1.267       .  A
O458        C460   1.275       .  A
C459        O461   1.267       .  A
C459       C1641   1.476   1_545  S
C460        C601   1.493   1_545  S
C462        C777   1.474       .  S
Fe463       O479   2.062       .  S
Fe463       O469   2.047       .  S
Fe463       O476   2.066       .  S
Fe463       O468   2.067       .  S
Fe463       O474   1.956       .  S
Fe464       O467   2.068       .  S
Fe464       O471   2.058       .  S
Fe464       O475   2.080       .  S
Fe464       O480   2.043       .  S
Fe464       O474   1.968       .  S
Fe465       O483   2.057       .  S
Fe465       O470   2.098       .  S
Fe465       O477   2.093       .  S
Fe465       O466   2.068       .  S
Fe465       O474   1.970       .  S
O466        C473   1.268       .  A
O467        C481   1.269       .  A
O468        C473   1.267       .  A
O469        C472   1.271       .  A
O470        C482   1.277       .  A
O471        C484   1.263       .  A
C472        O477   1.276       .  A
C472        C713   1.477       .  S
C473        C625   1.489       .  S
O475        C478   1.275       .  A
O476        C478   1.273       .  A
C478        C529   1.484       .  S
O479        C484   1.268       .  A
O480        C482   1.268       .  A
C481        O483   1.267       .  A
C481       C1097   1.481       .  S
C482        C553   1.487       .  S
C484       C1329   1.476       .  S
Fe485       O501   2.057       .  S
Fe485       O491   2.040       .  S
Fe485       O498   2.060       .  S
Fe485       O490   2.070       .  S
Fe485       O496   1.963       .  S
Fe486       O489   2.068       .  S
Fe486       O493   2.076       .  S
Fe486       O497   2.075       .  S
Fe486       O502   2.076       .  S
Fe486       O496   1.981       .  S
Fe487       O505   2.048       .  S
Fe487       O492   2.061       .  S
Fe487       O499   2.068       .  S
Fe487       O488   2.058       .  S
Fe487       O496   1.982       .  S
O488        C495   1.266       .  A
O489        C503   1.266       .  A
O490        C495   1.271       .  A
O491        C494   1.266       .  A
O492        C504   1.274       .  A
O493        C506   1.272       .  A
C494        O499   1.268       .  A
C494       C1081   1.466       .  S
C495        C545   1.485       .  S
O497        C500   1.269       .  A
O498        C500   1.266       .  A
C500       C1561   1.490       .  S
O501        C506   1.270       .  A
O502        C504   1.276       .  A
C503        O505   1.263       .  A
C503        C785   1.481   1_554  S
C504        C569   1.483   1_554  S
C506       C1249   1.475       .  S
Fe507       O523   2.045       .  S
Fe507       O513   2.052       .  S
Fe507       O520   2.061       .  S
Fe507       O512   2.048       .  S
Fe507       O518   1.951       .  S
Fe508       O511   2.041       .  S
Fe508       O515   2.106       .  S
Fe508       O519   2.058       .  S
Fe508       O524   2.089       .  S
Fe508       O518   1.960       .  S
Fe509       O527   2.098       .  S
Fe509       O514   2.051       .  S
Fe509       O521   2.050       .  S
Fe509       O510   2.107       .  S
Fe509       O518   1.971       .  S
O510        C517   1.278       .  A
O511        C525   1.266       .  A
O512        C517   1.270       .  A
O513        C516   1.265       .  A
O514        C526   1.269       .  A
O515        C528   1.279       .  A
C516        O521   1.262       .  A
C516        C641   1.456       .  S
C517        C585   1.482       .  S
O519        C522   1.265       .  A
O520        C522   1.265       .  A
C522        C937   1.477       .  S
O523        C528   1.269       .  A
O524        C526   1.277       .  A
C525        O527   1.274       .  A
C525       C1345   1.487   1_565  S
C526        C537   1.484   1_565  S
C528        C889   1.478       .  S
C529        C530   1.408       .  A
C529        C534   1.408       .  A
C530        C531   1.395       .  A
C530        H539   1.083       .  S
C531        C532   1.399       .  A
C531        H540   1.084       .  S
C532        C538   1.403       .  A
C532        C533   1.414       .  A
C533        C535   1.401       .  A
C533        C534   1.406       .  A
C534        H541   1.084       .  S
C535        C536   1.398       .  A
C535        H542   1.084       .  S
C536        C537   1.409       .  A
C536        H543   1.083       .  S
C537        C538   1.405       .  A
C538        H544   1.084       .  S
C545        C546   1.410       .  A
C545        C550   1.404       .  A
C546        C547   1.399       .  A
C546        H555   1.083       .  S
C547        C548   1.401       .  A
C547        H556   1.084       .  S
C548        C554   1.410       .  A
C548        C549   1.415       .  A
C549        C551   1.397       .  A
C549        C550   1.404       .  A
C550        H557   1.084       .  S
C551        C552   1.393       .  A
C551        H558   1.084       .  S
C552        C553   1.410       .  A
C552        H559   1.083       .  S
C553        C554   1.408       .  A
C554        H560   1.084       .  S
C561        C562   1.406       .  A
C561        C566   1.407       .  A
C562        C563   1.397       .  A
C562        H571   1.083       .  S
C563        C564   1.402       .  A
C563        H572   1.083       .  S
C564        C570   1.402       .  A
C564        C565   1.413       .  A
C565        C567   1.402       .  A
C565        C566   1.403       .  A
C566        H573   1.084       .  S
C567        C568   1.398       .  A
C567        H574   1.083       .  S
C568        C569   1.407       .  A
C568        H575   1.083       .  S
C569        C570   1.408       .  A
C570        H576   1.084       .  S
C577        C578   1.408       .  A
C577        C582   1.408       .  A
C578        C579   1.401       .  A
C578        H587   1.083       .  S
C579        C580   1.403       .  A
C579        H588   1.083       .  S
C580        C586   1.410       .  A
C580        C581   1.414       .  A
C581        C583   1.401       .  A
C581        C582   1.404       .  A
C582        H589   1.084       .  S
C583        C584   1.395       .  A
C583        H590   1.083       .  S
C584        C585   1.406       .  A
C584        H591   1.084       .  S
C585        C586   1.408       .  A
C586        H592   1.084       .  S
C593        C594   1.408       .  A
C593        C598   1.409       .  A
C594        C595   1.398       .  A
C594        H603   1.083       .  S
C595        C596   1.401       .  A
C595        H604   1.083       .  S
C596        C602   1.409       .  A
C596        C597   1.414       .  A
C597        C599   1.402       .  A
C597        C598   1.410       .  A
C598        H605   1.084       .  S
C599        C600   1.400       .  A
C599        H606   1.083       .  S
C600        C601   1.409       .  A
C600        H607   1.083       .  S
C601        C602   1.409       .  A
C602        H608   1.084       .  S
C609        C610   1.408       .  A
C609        C614   1.408       .  A
C610        C611   1.398       .  A
C610        H619   1.083       .  S
C611        C612   1.402       .  A
C611        H620   1.084       .  S
C612        C618   1.405       .  A
C612        C613   1.413       .  A
C613        C615   1.401       .  A
C613        C614   1.404       .  A
C614        H621   1.084       .  S
C615        C616   1.397       .  A
C615        H622   1.084       .  S
C616        C617   1.408       .  A
C616        H623   1.083       .  S
C617        C618   1.408       .  A
C618        H624   1.084       .  S
C625        C626   1.407       .  A
C625        C630   1.410       .  A
C626        C627   1.400       .  A
C626        H635   1.083       .  S
C627        C628   1.403       .  A
C627        H636   1.083       .  S
C628        C634   1.409       .  A
C628        C629   1.413       .  A
C629        C631   1.402       .  A
C629        C630   1.407       .  A
C630        H637   1.084       .  S
C631        C632   1.398       .  A
C631        H638   1.084       .  S
C632        C633   1.408       .  A
C632        H639   1.083       .  S
C633        C634   1.409       .  A
C634        H640   1.084   1_554  S
C641        C642   1.402       .  A
C641        C646   1.400       .  A
C642        C643   1.391       .  A
C642        H651   1.084       .  S
C643        C644   1.400       .  A
C643        H652   1.085       .  S
C644        C650   1.393       .  A
C644        C645   1.416       .  A
C645        C647   1.404       .  A
C645        C646   1.401       .  A
C646        H653   1.085       .  S
C647        C648   1.398       .  A
C647        H654   1.084       .  S
C648        C649   1.402       .  A
C648        H655   1.083       .  S
C649        C650   1.401       .  A
C650        H656   1.085       .  S
C657        C658   1.405   1_556  A
C657        C662   1.409       .  A
C658        C659   1.396       .  A
C658        H667   1.083       .  S
C659        C660   1.402       .  A
C659        H668   1.083       .  S
C660        C666   1.401       .  A
C660        C661   1.412       .  A
C661        C663   1.403       .  A
C661        C662   1.402   1_554  A
C662        H669   1.084       .  S
C663        C664   1.398       .  A
C663        H670   1.084       .  S
C664        C665   1.406       .  A
C664        H671   1.083       .  S
C665        C666   1.409       .  A
C666        H672   1.084       .  S
C673        C674   1.410       .  A
C673        C678   1.407       .  A
C674        C675   1.392       .  A
C674        H683   1.083       .  S
C675        C676   1.397       .  A
C675        H684   1.084       .  S
C676        C682   1.402       .  A
C676        C677   1.414       .  A
C677        C679   1.401       .  A
C677        C678   1.408       .  A
C678        H685   1.084       .  S
C679        C680   1.399       .  A
C679        H686   1.083       .  S
C680        C681   1.409       .  A
C680        H687   1.083       .  S
C681        C682   1.404       .  A
C682        H688   1.084       .  S
C689        C690   1.408       .  A
C689        C694   1.407       .  A
C690        C691   1.396       .  A
C690        H699   1.083       .  S
C691        C692   1.400       .  A
C691        H700   1.084       .  S
C692        C698   1.405       .  A
C692        C693   1.414       .  A
C693        C695   1.400       .  A
C693        C694   1.405       .  A
C694        H701   1.084       .  S
C695        C696   1.397       .  A
C695        H702   1.084       .  S
C696        C697   1.409       .  A
C696        H703   1.083       .  S
C697        C698   1.406       .  A
C698        H704   1.084       .  S
C705        C706   1.402       .  A
C705        C710   1.405       .  A
C706        C707   1.391       .  A
C706        H715   1.083       .  S
C707        C708   1.399       .  A
C707        H716   1.084       .  S
C708        C714   1.398       .  A
C708        C709   1.415       .  A
C709        C711   1.405       .  A
C709        C710   1.409       .  A
C710        H717   1.084       .  S
C711        C712   1.403       .  A
C711        H718   1.083       .  S
C712        C713   1.405       .  A
C712        H719   1.083       .  S
C713        C714   1.403       .  A
C714        H720   1.085       .  S
C721        C722   1.409       .  A
C721        C726   1.408       .  A
C722        C723   1.394       .  A
C722        H731   1.083       .  S
C723        C724   1.399       .  A
C723        H732   1.084       .  S
C724        C730   1.401       .  A
C724        C725   1.414       .  A
C725        C727   1.403       .  A
C725        C726   1.405       .  A
C726        H733   1.084       .  S
C727        C728   1.399       .  A
C727        H734   1.083       .  S
C728        C729   1.406       .  A
C728        H735   1.083       .  S
C729        C730   1.404       .  A
C730        H736   1.084       .  S
C737        C738   1.407       .  A
C737        C742   1.409       .  A
C738        C739   1.397       .  A
C738        H747   1.083       .  S
C739        C740   1.402       .  A
C739        H748   1.084       .  S
C740        C746   1.403       .  A
C740        C741   1.412       .  A
C741        C743   1.402       .  A
C741        C742   1.404       .  A
C742        H749   1.084       .  S
C743        C744   1.398       .  A
C743        H750   1.084       .  S
C744        C745   1.407       .  A
C744        H751   1.083       .  S
C745        C746   1.408       .  A
C746        H752   1.084   1_556  S
C753        C754   1.409       .  A
C753        C758   1.409       .  A
C754        C755   1.394       .  A
C754        H763   1.083       .  S
C755        C756   1.398       .  A
C755        H764   1.084       .  S
C756        C762   1.403       .  A
C756        C757   1.414       .  A
C757        C759   1.403       .  A
C757        C758   1.410       .  A
C758        H765   1.084       .  S
C759        C760   1.401       .  A
C759        H766   1.084       .  S
C760        C761   1.408       .  A
C760        H767   1.083       .  S
C761        C762   1.406       .  A
C762        H768   1.084       .  S
C769        C770   1.406       .  A
C769        C774   1.404       .  A
C770        C771   1.404       .  A
C770        H779   1.083       .  S
C771        C772   1.406       .  A
C771        H780   1.084       .  S
C772        C778   1.412       .  A
C772        C773   1.415       .  A
C773        C775   1.399       .  A
C773        C774   1.401       .  A
C774        H781   1.085       .  S
C775        C776   1.392       .  A
C775        H782   1.084       .  S
C776        C777   1.403       .  A
C776        H783   1.084       .  S
C777        C778   1.408       .  A
C778        H784   1.084       .  S
C785        C786   1.408       .  A
C785        C790   1.407       .  A
C786        C787   1.394       .  A
C786        H795   1.083       .  S
C787        C788   1.399       .  A
C787        H796   1.084       .  S
C788        C794   1.400       .  A
C788        C789   1.413       .  A
C789        C791   1.402       .  A
C789        C790   1.404       .  A
C790        H797   1.084   1_556  S
C791        C792   1.398       .  A
C791        H798   1.083       .  S
C792        C793   1.406       .  A
C792        H799   1.083       .  S
C793        C794   1.405       .  A
C794        H800   1.085       .  S
C801        C802   1.410       .  A
C801        C806   1.406       .  A
C802        C803   1.396       .  A
C802        H811   1.084       .  S
C803        C804   1.399       .  A
C803        H812   1.084       .  S
C804        C810   1.409       .  A
C804        C805   1.416       .  A
C805        C807   1.400       .  A
C805        C806   1.412       .  A
C806        H813   1.084       .  S
C807        C808   1.399       .  A
C807        H814   1.083       .  S
C808        C809   1.411       .  A
C808        H815   1.083       .  S
C809        C810   1.407       .  A
C810        H816   1.084       .  S
C817        C818   1.410       .  A
C817        C822   1.407       .  A
C818        C819   1.399       .  A
C818        H827   1.083       .  S
C819        C820   1.401       .  A
C819        H828   1.084       .  S
C820        C826   1.410       .  A
C820        C821   1.415       .  A
C821        C823   1.400       .  A
C821        C822   1.409       .  A
C822        H829   1.084       .  S
C823        C824   1.397       .  A
C823        H830   1.084       .  S
C824        C825   1.410       .  A
C824        H831   1.083       .  S
C825        C826   1.409       .  A
C826        H832   1.084       .  S
C833        C834   1.404       .  A
C833        C838   1.405       .  A
C834        C835   1.393       .  A
C834        H843   1.084       .  S
C835        C836   1.400       .  A
C835        H844   1.084       .  S
C836        C842   1.402       .  A
C836        C837   1.415       .  A
C837        C839   1.405       .  A
C837        C838   1.409       .  A
C838        H845   1.084       .  S
C839        C840   1.402       .  A
C839        H846   1.083       .  S
C840        C841   1.405       .  A
C840        H847   1.083       .  S
C841        C842   1.403       .  A
C842        H848   1.085       .  S
C849        C850   1.407       .  A
C849        C854   1.409       .  A
C850        C851   1.390       .  A
C850        H859   1.083       .  S
C851        C852   1.397       .  A
C851        H860   1.084       .  S
C852        C858   1.399       .  A
C852        C853   1.415       .  A
C853        C855   1.406       .  A
C853        C854   1.414       .  A
C854        H861   1.084       .  S
C855        C856   1.405       .  A
C855        H862   1.083       .  S
C856        C857   1.406       .  A
C856        H863   1.083       .  S
C857        C858   1.403       .  A
C858        H864   1.085       .  S
C865        C866   1.406       .  A
C865        C870   1.410       .  A
C866        C867   1.397       .  A
C866        H875   1.083       .  S
C867        C868   1.402       .  A
C867        H876   1.083       .  S
C868        C874   1.403       .  A
C868        C869   1.412       .  A
C869        C871   1.403       .  A
C869        C870   1.406       .  A
C870        H877   1.084       .  S
C871        C872   1.400       .  A
C871        H878   1.083       .  S
C872        C873   1.408       .  A
C872        H879   1.083       .  S
C873        C874   1.409       .  A
C874        H880   1.084       .  S
C881        C882   1.401       .  A
C881        C886   1.406       .  A
C882        C883   1.397       .  A
C882        H891   1.084       .  S
C883        C884   1.403       .  A
C883        H892   1.084       .  S
C884        C890   1.403       .  A
C884        C885   1.414       .  A
C885        C887   1.406       .  A
C885        C886   1.408       .  A
C886        H893   1.084       .  S
C887        C888   1.402       .  A
C887        H894   1.083       .  S
C888        C889   1.403       .  A
C888        H895   1.083       .  S
C889        C890   1.407       .  A
C890        H896   1.084       .  S
C897        C898   1.411       .  A
C897        C902   1.406       .  A
C898        C899   1.395       .  A
C898        H907   1.083       .  S
C899        C900   1.398       .  A
C899        H908   1.084       .  S
C900        C906   1.406       .  A
C900        C901   1.415       .  A
C901        C903   1.400       .  A
C901        C902   1.408       .  A
C902        H909   1.084       .  S
C903        C904   1.397       .  A
C903        H910   1.084       .  S
C904        C905   1.410       .  A
C904        H911   1.083       .  S
C905        C906   1.406       .  A
C906        H912   1.084       .  S
C913        C914   1.405       .  A
C913        C918   1.403       .  A
C914        C915   1.396       .  A
C914        H923   1.083       .  S
C915        C916   1.401       .  A
C915        H924   1.083       .  S
C916        C922   1.403       .  A
C916        C917   1.416       .  A
C917        C919   1.400       .  A
C917        C918   1.399       .  A
C918        H925   1.084       .  S
C919        C920   1.392       .  A
C919        H926   1.083       .  S
C920        C921   1.402       .  A
C920        H927   1.082       .  S
C921        C922   1.400       .  A
C922        H928   1.084       .  S
C929        C930   1.407       .  A
C929        C934   1.408       .  A
C930        C931   1.394       .  A
C930        H939   1.083       .  S
C931        C932   1.399       .  A
C931        H940   1.084       .  S
C932        C938   1.401       .  A
C932        C933   1.414       .  A
C933        C935   1.403       .  A
C933        C934   1.406       .  A
C934        H941   1.084       .  S
C935        C936   1.399       .  A
C935        H942   1.084       .  S
C936        C937   1.406       .  A
C936        H943   1.083       .  S
C937        C938   1.404       .  A
C938        H944   1.084       .  S
C945        C946   1.409       .  A
C945        C950   1.408       .  A
C946        C947   1.396       .  A
C946        H955   1.083       .  S
C947        C948   1.400       .  A
C947        H956   1.084       .  S
C948        C954   1.404       .  A
C948        C949   1.414       .  A
C949        C951   1.403       .  A
C949        C950   1.408       .  A
C950        H957   1.084       .  S
C951        C952   1.399       .  A
C951        H958   1.083       .  S
C952        C953   1.407       .  A
C952        H959   1.083       .  S
C953        C954   1.406       .  A
C954        H960   1.084       .  S
C961        C962   1.404       .  A
C961        C966   1.410       .  A
C962        C963   1.392       .  A
C962        H971   1.084       .  S
C963        C964   1.400       .  A
C963        H972   1.084       .  S
C964        C970   1.397       .  A
C964        C965   1.413       .  A
C965        C967   1.408       .  A
C965        C966   1.409       .  A
C966        H973   1.084       .  S
C967        C968   1.405       .  A
C967        H974   1.083       .  S
C968        C969   1.404       .  A
C968        H975   1.083       .  S
C969        C970   1.405       .  A
C970        H976   1.084       .  S
C977        C978   1.406       .  A
C977        C982   1.404       .  A
C978        C979   1.401       .  A
C978        H987   1.083       .  S
C979        C980   1.405       .  A
C979        H988   1.083       .  S
C980        C986   1.408       .  A
C980        C981   1.414       .  A
C981        C983   1.399       .  A
C981        C982   1.400       .  A
C982        H989   1.085       .  S
C983        C984   1.393       .  A
C983        H990   1.084       .  S
C984        C985   1.406       .  A
C984        H991   1.083       .  S
C985        C986   1.409       .  A
C986        H992   1.084       .  S
C993        C994   1.407       .  A
C993        C998   1.413       .  A
C994        C995   1.393       .  A
C994       H1003   1.083       .  S
C995        C996   1.399       .  A
C995       H1004   1.084       .  S
C996       C1002   1.402       .  A
C996        C997   1.413       .  A
C997        C999   1.407       .  A
C997        C998   1.412       .  A
C998       H1005   1.084       .  S
C999       C1000   1.405       .  A
C999       H1006   1.083       .  S
C1000      C1001   1.407       .  A
C1000      H1007   1.083       .  S
C1001      C1002   1.405       .  A
C1002      H1008   1.084       .  S
C1009      C1010   1.411       .  A
C1009      C1014   1.409       .  A
C1010      C1011   1.397       .  A
C1010      H1019   1.083       .  S
C1011      C1012   1.399       .  A
C1011      H1020   1.084       .  S
C1012      C1018   1.410       .  A
C1012      C1013   1.415       .  A
C1013      C1015   1.401       .  A
C1013      C1014   1.413       .  A
C1014      H1021   1.084       .  S
C1015      C1016   1.400       .  A
C1015      H1022   1.084       .  S
C1016      C1017   1.411       .  A
C1016      H1023   1.083       .  S
C1017      C1018   1.407       .  A
C1018      H1024   1.084       .  S
C1025      C1026   1.403       .  A
C1025      C1030   1.407       .  A
C1026      C1027   1.389       .  A
C1026      H1035   1.084       .  S
C1027      C1028   1.398       .  A
C1027      H1036   1.084       .  S
C1028      C1034   1.396       .  A
C1028      C1029   1.415       .  A
C1029      C1031   1.407       .  A
C1029      C1030   1.411       .  A
C1030      H1037   1.084       .  S
C1031      C1032   1.405       .  A
C1031      H1038   1.084       .  S
C1032      C1033   1.405       .  A
C1032      H1039   1.083       .  S
C1033      C1034   1.402       .  A
C1034      H1040   1.085       .  S
C1041      C1042   1.409       .  A
C1041      C1046   1.405       .  A
C1042      C1043   1.404       .  A
C1042      H1051   1.083       .  S
C1043      C1044   1.404       .  A
C1043      H1052   1.083       .  S
C1044      C1050   1.415       .  A
C1044      C1045   1.414       .  A
C1045      C1047   1.396       .  A
C1045      C1046   1.403       .  A
C1046      H1053   1.084       .  S
C1047      C1048   1.391       .  A
C1047      H1054   1.084       .  S
C1048      C1049   1.411       .  A
C1048      H1055   1.083       .  S
C1049      C1050   1.411       .  A
C1050      H1056   1.084       .  S
C1057      C1058   1.404       .  A
C1057      C1062   1.405       .  A
C1058      C1059   1.393       .  A
C1058      H1067   1.084       .  S
C1059      C1060   1.400       .  A
C1059      H1068   1.083       .  S
C1060      C1066   1.399       .  A
C1060      C1061   1.414       .  A
C1061      C1063   1.402       .  A
C1061      C1062   1.405       .  A
C1062      H1069   1.084       .  S
C1063      C1064   1.399       .  A
C1063      H1070   1.084       .  S
C1064      C1065   1.407       .  A
C1064      H1071   1.083       .  S
C1065      C1066   1.404       .  A
C1066      H1072   1.084       .  S
C1073      C1074   1.406       .  A
C1073      C1078   1.409       .  A
C1074      C1075   1.388       .  A
C1074      H1083   1.083       .  S
C1075      C1076   1.397       .  A
C1075      H1084   1.083       .  S
C1076      C1082   1.392       .  A
C1076      C1077   1.413       .  A
C1077      C1079   1.406       .  A
C1077      C1078   1.404       .  A
C1078      H1085   1.083       .  S
C1079      C1080   1.402       .  A
C1079      H1086   1.083       .  S
C1080      C1081   1.403       .  A
C1080      H1087   1.083       .  S
C1081      C1082   1.401       .  A
C1082      H1088   1.084       .  S
C1089      C1090   1.408       .  A
C1089      C1094   1.407       .  A
C1090      C1091   1.396       .  A
C1090      H1099   1.083       .  S
C1091      C1092   1.400       .  A
C1091      H1100   1.084       .  S
C1092      C1098   1.403       .  A
C1092      C1093   1.414       .  A
C1093      C1095   1.401       .  A
C1093      C1094   1.404       .  A
C1094      H1101   1.084       .  S
C1095      C1096   1.397       .  A
C1095      H1102   1.083       .  S
C1096      C1097   1.407       .  A
C1096      H1103   1.083       .  S
C1097      C1098   1.406       .  A
C1098      H1104   1.084       .  S
C1105      C1106   1.408       .  A
C1105      C1110   1.407       .  A
C1106      C1107   1.395       .  A
C1106      H1115   1.083       .  S
C1107      C1108   1.399       .  A
C1107      H1116   1.084       .  S
C1108      C1114   1.403       .  A
C1108      C1109   1.414       .  A
C1109      C1111   1.401       .  A
C1109      C1110   1.406       .  A
C1110      H1117   1.084       .  S
C1111      C1112   1.398       .  A
C1111      H1118   1.084       .  S
C1112      C1113   1.408       .  A
C1112      H1119   1.083       .  S
C1113      C1114   1.405       .  A
C1114      H1120   1.084       .  S
C1121      C1122   1.407       .  A
C1121      C1126   1.406       .  A
C1122      C1123   1.402       .  A
C1122      H1131   1.083       .  S
C1123      C1124   1.404       .  A
C1123      H1132   1.083       .  S
C1124      C1130   1.409       .  A
C1124      C1125   1.413       .  A
C1125      C1127   1.399       .  A
C1125      C1126   1.400       .  A
C1126      H1133   1.084       .  S
C1127      C1128   1.393       .  A
C1127      H1134   1.084       .  S
C1128      C1129   1.408       .  A
C1128      H1135   1.083       .  S
C1129      C1130   1.409       .  A
C1130      H1136   1.084       .  S
C1137      C1138   1.408       .  A
C1137      C1142   1.408       .  A
C1138      C1139   1.393       .  A
C1138      H1147   1.083       .  S
C1139      C1140   1.398       .  A
C1139      H1148   1.084       .  S
C1140      C1146   1.404       .  A
C1140      C1141   1.415       .  A
C1141      C1143   1.403       .  A
C1141      C1142   1.411       .  A
C1142      H1149   1.084       .  S
C1143      C1144   1.401       .  A
C1143      H1150   1.083       .  S
C1144      C1145   1.409       .  A
C1144      H1151   1.083       .  S
C1145      C1146   1.405       .  A
C1146      H1152   1.084       .  S
C1153      C1154   1.405       .  A
C1153      C1158   1.401       .  A
C1154      C1155   1.403       .  A
C1154      H1163   1.083       .  S
C1155      C1156   1.406       .  A
C1155      H1164   1.084       .  S
C1156      C1162   1.408       .  A
C1156      C1157   1.415       .  A
C1157      C1159   1.398       .  A
C1157      C1158   1.395       .  A
C1158      H1165   1.085       .  S
C1159      C1160   1.390       .  A
C1159      H1166   1.084       .  S
C1160      C1161   1.404       .  A
C1160      H1167   1.084       .  S
C1161      C1162   1.407       .  A
C1162      H1168   1.084       .  S
C1169      C1170   1.405       .  A
C1169      C1174   1.402       .  A
C1170      C1171   1.407       .  A
C1170      H1179   1.083       .  S
C1171      C1172   1.408       .  A
C1171      H1180   1.084       .  S
C1172      C1178   1.412       .  A
C1172      C1173   1.415       .  A
C1173      C1175   1.397       .  A
C1173      C1174   1.396       .  A
C1174      H1181   1.085       .  S
C1175      C1176   1.388       .  A
C1175      H1182   1.084       .  S
C1176      C1177   1.404       .  A
C1176      H1183   1.084       .  S
C1177      C1178   1.409       .  A
C1178      H1184   1.084       .  S
C1185      C1186   1.411       .  A
C1185      C1190   1.411       .  A
C1186      C1187   1.393       .  A
C1186      H1195   1.083       .  S
C1187      C1188   1.397       .  A
C1187      H1196   1.084       .  S
C1188      C1194   1.407       .  A
C1188      C1189   1.414       .  A
C1189      C1191   1.404       .  A
C1189      C1190   1.417       .  A
C1190      H1197   1.084       .  S
C1191      C1192   1.405       .  A
C1191      H1198   1.083       .  S
C1192      C1193   1.410       .  A
C1192      H1199   1.083       .  S
C1193      C1194   1.408       .  A
C1194      H1200   1.084       .  S
C1201      C1202   1.401       .  A
C1201      C1206   1.406       .  A
C1202      C1203   1.389       .  A
C1202      H1211   1.084       .  S
C1203      C1204   1.398       .  A
C1203      H1212   1.085       .  S
C1204      C1210   1.395       .  A
C1204      C1205   1.416       .  A
C1205      C1207   1.407       .  A
C1205      C1206   1.409       .  A
C1206      H1213   1.085       .  S
C1207      C1208   1.404       .  A
C1207      H1214   1.084       .  S
C1208      C1209   1.404       .  A
C1208      H1215   1.083       .  S
C1209      C1210   1.400       .  A
C1210      H1216   1.087       .  S
C1217      C1218   1.407       .  A
C1217      C1222   1.410       .  A
C1218      C1219   1.396       .  A
C1218      H1227   1.083       .  S
C1219      C1220   1.401       .  A
C1219      H1228   1.083       .  S
C1220      C1226   1.404       .  A
C1220      C1221   1.413       .  A
C1221      C1223   1.404       .  A
C1221      C1222   1.408       .  A
C1222      H1229   1.084       .  S
C1223      C1224   1.401       .  A
C1223      H1230   1.083       .  S
C1224      C1225   1.407       .  A
C1224      H1231   1.083       .  S
C1225      C1226   1.407       .  A
C1226      H1232   1.084       .  S
C1233      C1234   1.409       .  A
C1233      C1238   1.410       .  A
C1234      C1235   1.397       .  A
C1234      H1243   1.083       .  S
C1235      C1236   1.400       .  A
C1235      H1244   1.084       .  S
C1236      C1242   1.406   1_455  A
C1236      C1237   1.413       .  A
C1237      C1239   1.403       .  A
C1237      C1238   1.409       .  A
C1238      H1245   1.084       .  S
C1239      C1240   1.400       .  A
C1239      H1246   1.084       .  S
C1240      C1241   1.408   1_455  A
C1240      H1247   1.083       .  S
C1241      C1242   1.408       .  A
C1242      H1248   1.084       .  S
C1249      C1250   1.404       .  A
C1249      C1254   1.403       .  A
C1250      C1251   1.402       .  A
C1250      H1259   1.083       .  S
C1251      C1252   1.405       .  A
C1251      H1260   1.082       .  S
C1252      C1258   1.408       .  A
C1252      C1253   1.414       .  A
C1253      C1255   1.399       .  A
C1253      C1254   1.398       .  A
C1254      H1261   1.084       .  S
C1255      C1256   1.391       .  A
C1255      H1262   1.083       .  S
C1256      C1257   1.405       .  A
C1256      H1263   1.084       .  S
C1257      C1258   1.407       .  A
C1258      H1264   1.083       .  S
C1265      C1266   1.404       .  A
C1265      C1270   1.404       .  A
C1266      C1267   1.406       .  A
C1266      H1275   1.083       .  S
C1267      C1268   1.408       .  A
C1267      H1276   1.083       .  S
C1268      C1274   1.410       .  A
C1268      C1269   1.414       .  A
C1269      C1271   1.400       .  A
C1269      C1270   1.396       .  A
C1270      H1277   1.085       .  S
C1271      C1272   1.392       .  A
C1271      H1278   1.084       .  S
C1272      C1273   1.401       .  A
C1272      H1279   1.084       .  S
C1273      C1274   1.407       .  A
C1274      H1280   1.084       .  S
C1281      C1282   1.403       .  A
C1281      C1286   1.402       .  A
C1282      C1283   1.401       .  A
C1282      H1291   1.083       .  S
C1283      C1284   1.406       .  A
C1283      H1292   1.084       .  S
C1284      C1290   1.403       .  A
C1284      C1285   1.413       .  A
C1285      C1287   1.398       .  A
C1285      C1286   1.393       .  A
C1286      H1293   1.085       .  S
C1287      C1288   1.390       .  A
C1287      H1294   1.084       .  S
C1288      C1289   1.406       .  A
C1288      H1295   1.083       .  S
C1289      C1290   1.409       .  A
C1290      H1296   1.084       .  S
C1297      C1298   1.411       .  A
C1297      C1302   1.406       .  A
C1298      C1299   1.398       .  A
C1298      H1307   1.083       .  S
C1299      C1300   1.400       .  A
C1299      H1308   1.084       .  S
C1300      C1306   1.411       .  A
C1300      C1301   1.416       .  A
C1301      C1303   1.398       .  A
C1301      C1302   1.409       .  A
C1302      H1309   1.084       .  S
C1303      C1304   1.395   1_455  A
C1303      H1310   1.084       .  S
C1304      C1305   1.411       .  A
C1304      H1311   1.083       .  S
C1305      C1306   1.407   1_655  A
C1306      H1312   1.084       .  S
C1313      C1314   1.407       .  A
C1313      C1318   1.405       .  A
C1314      C1315   1.398       .  A
C1314      H1323   1.083       .  S
C1315      C1316   1.401       .  A
C1315      H1324   1.083       .  S
C1316      C1322   1.403       .  A
C1316      C1317   1.414       .  A
C1317      C1319   1.398       .  A
C1317      C1318   1.399       .  A
C1318      H1325   1.084       .  S
C1319      C1320   1.392       .  A
C1319      H1326   1.084       .  S
C1320      C1321   1.408       .  A
C1320      H1327   1.083       .  S
C1321      C1322   1.406       .  A
C1322      H1328   1.084   1_565  S
C1329      C1330   1.407       .  A
C1329      C1334   1.398       .  A
C1330      C1331   1.405       .  A
C1330      H1339   1.083       .  S
C1331      C1332   1.406       .  A
C1331      H1340   1.083       .  S
C1332      C1338   1.413       .  A
C1332      C1333   1.416       .  A
C1333      C1335   1.392       .  A
C1333      C1334   1.393       .  A
C1334      H1341   1.085       .  S
C1335      C1336   1.383       .  A
C1335      H1342   1.084       .  S
C1336      C1337   1.407       .  A
C1336      H1343   1.083       .  S
C1337      C1338   1.407       .  A
C1338      H1344   1.084       .  S
C1345      C1346   1.408       .  A
C1345      C1350   1.410       .  A
C1346      C1347   1.391       .  A
C1346      H1355   1.083       .  S
C1347      C1348   1.397       .  A
C1347      H1356   1.084       .  S
C1348      C1354   1.402       .  A
C1348      C1349   1.414       .  A
C1349      C1351   1.404       .  A
C1349      C1350   1.413       .  A
C1350      H1357   1.084       .  S
C1351      C1352   1.403       .  A
C1351      H1358   1.083       .  S
C1352      C1353   1.408       .  A
C1352      H1359   1.083       .  S
C1353      C1354   1.406       .  A
C1354      H1360   1.084       .  S
C1361      C1362   1.410       .  A
C1361      C1366   1.405       .  A
C1362      C1363   1.402       .  A
C1362      H1371   1.083       .  S
C1363      C1364   1.403       .  A
C1363      H1372   1.084       .  S
C1364      C1370   1.414       .  A
C1364      C1365   1.416       .  A
C1365      C1367   1.399       .  A
C1365      C1366   1.407       .  A
C1366      H1373   1.084       .  S
C1367      C1368   1.394       .  A
C1367      H1374   1.083       .  S
C1368      C1369   1.407       .  A
C1368      H1375   1.084       .  S
C1369      C1370   1.408       .  A
C1370      H1376   1.084       .  S
C1377      C1378   1.408       .  A
C1377      C1382   1.404       .  A
C1378      C1379   1.393       .  A
C1378      H1387   1.083       .  S
C1379      C1380   1.398       .  A
C1379      H1388   1.084       .  S
C1380      C1386   1.404       .  A
C1380      C1381   1.416       .  A
C1381      C1383   1.400       .  A
C1381      C1382   1.408       .  A
C1382      H1389   1.084       .  S
C1383      C1384   1.398       .  A
C1383      H1390   1.084       .  S
C1384      C1385   1.409       .  A
C1384      H1391   1.083       .  S
C1385      C1386   1.405       .  A
C1386      H1392   1.084       .  S
C1393      C1394   1.410       .  A
C1393      C1398   1.404       .  A
C1394      C1395   1.388       .  A
C1394      H1403   1.083       .  S
C1395      C1396   1.394       .  A
C1395      H1404   1.084       .  S
C1396      C1402   1.397       .  A
C1396      C1397   1.416       .  A
C1397      C1399   1.400       .  A
C1397      C1398   1.405       .  A
C1398      H1405   1.084       .  S
C1399      C1400   1.396       .  A
C1399      H1406   1.084       .  S
C1400      C1401   1.409       .  A
C1400      H1407   1.083       .  S
C1401      C1402   1.400       .  A
C1402      H1408   1.085       .  S
C1409      C1410   1.404       .  A
C1409      C1414   1.400       .  A
C1410      C1411   1.399       .  A
C1410      H1419   1.083       .  S
C1411      C1412   1.403       .  A
C1411      H1420   1.083       .  S
C1412      C1418   1.402       .  A
C1412      C1413   1.415       .  A
C1413      C1415   1.397       .  A
C1413      C1414   1.393       .  A
C1414      H1421   1.084       .  S
C1415      C1416   1.389       .  A
C1415      H1422   1.084       .  S
C1416      C1417   1.402       .  A
C1416      H1423   1.079       .  S
C1417      C1418   1.404       .  A
C1418      H1424   1.084       .  S
C1425      C1426   1.406       .  A
C1425      C1430   1.406       .  A
C1426      C1427   1.401       .  A
C1426      H1435   1.083       .  S
C1427      C1428   1.404       .  A
C1427      H1436   1.083       .  S
C1428      C1434   1.407       .  A
C1428      C1429   1.414       .  A
C1429      C1431   1.400       .  A
C1429      C1430   1.399       .  A
C1430      H1437   1.084       .  S
C1431      C1432   1.393       .  A
C1431      H1438   1.084       .  S
C1432      C1433   1.405       .  A
C1432      H1439   1.084       .  S
C1433      C1434   1.406       .  A
C1434      H1440   1.084       .  S
C1441      C1442   1.407       .  A
C1441      C1446   1.406       .  A
C1442      C1443   1.399       .  A
C1442      H1451   1.083       .  S
C1443      C1444   1.403       .  A
C1443      H1452   1.084       .  S
C1444      C1450   1.405       .  A
C1444      C1445   1.413       .  A
C1445      C1447   1.400       .  A
C1445      C1446   1.402       .  A
C1446      H1453   1.084       .  S
C1447      C1448   1.395       .  A
C1447      H1454   1.083       .  S
C1448      C1449   1.407       .  A
C1448      H1455   1.083       .  S
C1449      C1450   1.409       .  A
C1450      H1456   1.084       .  S
C1457      C1458   1.406       .  A
C1457      C1462   1.407       .  A
C1458      C1459   1.398       .  A
C1458      H1467   1.083       .  S
C1459      C1460   1.402       .  A
C1459      H1468   1.084       .  S
C1460      C1466   1.404       .  A
C1460      C1461   1.413       .  A
C1461      C1463   1.402       .  A
C1461      C1462   1.405       .  A
C1462      H1469   1.084       .  S
C1463      C1464   1.398       .  A
C1463      H1470   1.084       .  S
C1464      C1465   1.407       .  A
C1464      H1471   1.083       .  S
C1465      C1466   1.408       .  A
C1466      H1472   1.084       .  S
C1473      C1474   1.410       .  A
C1473      C1478   1.405       .  A
C1474      C1475   1.389       .  A
C1474      H1483   1.083   1_655  S
C1475      C1476   1.395       .  A
C1475      H1484   1.084       .  S
C1476      C1482   1.399       .  A
C1476      C1477   1.416       .  A
C1477      C1479   1.400       .  A
C1477      C1478   1.406       .  A
C1478      H1485   1.084       .  S
C1479      C1480   1.397       .  A
C1479      H1486   1.084       .  S
C1480      C1481   1.409       .  A
C1480      H1487   1.083       .  S
C1481      C1482   1.401       .  A
C1482      H1488   1.085       .  S
C1489      C1490   1.409       .  A
C1489      C1494   1.410       .  A
C1490      C1491   1.390       .  A
C1490      H1499   1.083       .  S
C1491      C1492   1.396       .  A
C1491      H1500   1.084       .  S
C1492      C1498   1.398       .  A
C1492      C1493   1.415       .  A
C1493      C1495   1.406       .  A
C1493      C1494   1.410       .  A
C1494      H1501   1.084       .  S
C1495      C1496   1.404       .  A
C1495      H1502   1.083       .  S
C1496      C1497   1.403       .  A
C1496      H1503   1.083       .  S
C1497      C1498   1.401       .  A
C1498      H1504   1.086       .  S
C1505      C1506   1.411       .  A
C1505      C1510   1.408       .  A
C1506      C1507   1.398       .  A
C1506      H1515   1.083       .  S
C1507      C1508   1.400       .  A
C1507      H1516   1.084       .  S
C1508      C1514   1.409       .  A
C1508      C1509   1.415       .  A
C1509      C1511   1.401       .  A
C1509      C1510   1.410       .  A
C1510      H1517   1.084       .  S
C1511      C1512   1.399       .  A
C1511      H1518   1.083       .  S
C1512      C1513   1.409       .  A
C1512      H1519   1.083       .  S
C1513      C1514   1.408       .  A
C1514      H1520   1.084       .  S
C1521      C1522   1.403       .  A
C1521      C1526   1.407       .  A
C1522      C1523   1.396       .  A
C1522      H1531   1.084       .  S
C1523      C1524   1.401       .  A
C1523      H1532   1.084       .  S
C1524      C1530   1.405       .  A
C1524      C1525   1.416       .  A
C1525      C1527   1.405       .  A
C1525      C1526   1.412       .  A
C1526      H1533   1.084       .  S
C1527      C1528   1.403       .  A
C1527      H1534   1.084       .  S
C1528      C1529   1.404       .  A
C1528      H1535   1.083       .  S
C1529      C1530   1.404       .  A
C1530      H1536   1.085       .  S
C1537      C1538   1.405       .  A
C1537      C1542   1.411       .  A
C1538      C1539   1.399       .  A
C1538      H1547   1.083       .  S
C1539      C1540   1.404       .  A
C1539      H1548   1.083       .  S
C1540      C1546   1.405       .  A
C1540      C1541   1.411       .  A
C1541      C1543   1.405       .  A
C1541      C1542   1.407       .  A
C1542      H1549   1.084   1_655  S
C1543      C1544   1.402       .  A
C1543      H1550   1.083       .  S
C1544      C1545   1.406       .  A
C1544      H1551   1.083       .  S
C1545      C1546   1.412       .  A
C1546      H1552   1.084       .  S
C1553      C1554   1.407       .  A
C1553      C1558   1.411       .  A
C1554      C1555   1.399       .  A
C1554      H1563   1.083       .  S
C1555      C1556   1.403       .  A
C1555      H1564   1.083       .  S
C1556      C1562   1.406       .  A
C1556      C1557   1.412       .  A
C1557      C1559   1.404       .  A
C1557      C1558   1.408       .  A
C1558      H1565   1.084   1_545  S
C1559      C1560   1.400       .  A
C1559      H1566   1.083       .  S
C1560      C1561   1.407       .  A
C1560      H1567   1.083       .  S
C1561      C1562   1.411       .  A
C1562      H1568   1.084       .  S
C1569      C1570   1.403       .  A
C1569      C1574   1.402       .  A
C1570      C1571   1.403       .  A
C1570      H1579   1.083       .  S
C1571      C1572   1.407       .  A
C1571      H1580   1.083       .  S
C1572      C1578   1.406       .  A
C1572      C1573   1.414       .  A
C1573      C1575   1.399       .  A
C1573      C1574   1.393       .  A
C1574      H1581   1.084       .  S
C1575      C1576   1.390       .  A
C1575      H1582   1.085       .  S
C1576      C1577   1.402       .  A
C1576      H1583   1.084       .  S
C1577      C1578   1.405       .  A
C1578      H1584   1.084       .  S
C1585      C1586   1.408       .  A
C1585      C1590   1.410       .  A
C1586      C1587   1.397       .  A
C1586      H1595   1.083       .  S
C1587      C1588   1.400       .  A
C1587      H1596   1.084       .  S
C1588      C1594   1.407       .  A
C1588      C1589   1.415       .  A
C1589      C1591   1.403       .  A
C1589      C1590   1.409       .  A
C1590      H1597   1.084       .  S
C1591      C1592   1.399       .  A
C1591      H1598   1.084       .  S
C1592      C1593   1.407       .  A
C1592      H1599   1.083       .  S
C1593      C1594   1.405       .  A
C1594      H1600   1.084       .  S
C1601      C1602   1.408       .  A
C1601      C1606   1.411       .  A
C1602      C1603   1.398       .  A
C1602      H1611   1.083       .  S
C1603      C1604   1.401       .  A
C1603      H1612   1.083       .  S
C1604      C1610   1.407       .  A
C1604      C1605   1.413       .  A
C1605      C1607   1.403       .  A
C1605      C1606   1.410       .  A
C1606      H1613   1.084       .  S
C1607      C1608   1.401       .  A
C1607      H1614   1.084       .  S
C1608      C1609   1.409       .  A
C1608      H1615   1.083       .  S
C1609      C1610   1.409       .  A
C1610      H1616   1.084       .  S
C1617      C1618   1.405       .  A
C1617      C1622   1.403       .  A
C1618      C1619   1.404       .  A
C1618      H1627   1.083       .  S
C1619      C1620   1.407       .  A
C1619      H1628   1.083       .  S
C1620      C1626   1.409       .  A
C1620      C1621   1.414       .  A
C1621      C1623   1.399       .  A
C1621      C1622   1.397       .  A
C1622      H1629   1.084       .  S
C1623      C1624   1.391       .  A
C1623      H1630   1.084       .  S
C1624      C1625   1.402       .  A
C1624      H1631   1.084       .  S
C1625      C1626   1.407       .  A
C1626      H1632   1.084       .  S
C1633      C1634   1.406       .  A
C1633      C1638   1.409       .  A
C1634      C1635   1.398       .  A
C1634      H1643   1.083       .  S
C1635      C1636   1.402       .  A
C1635      H1644   1.083       .  S
C1636      C1642   1.403   1_565  A
C1636      C1637   1.413       .  A
C1637      C1639   1.402       .  A
C1637      C1638   1.401       .  A
C1638      H1645   1.084       .  S
C1639      C1640   1.396       .  A
C1639      H1646   1.084       .  S
C1640      C1641   1.405       .  A
C1640      H1647   1.083       .  S
C1641      C1642   1.406   1_565  A
C1642      H1648   1.084       .  S
C1649      C1650   1.405       .  A
C1649      C1654   1.405       .  A
C1650      C1651   1.400       .  A
C1650      H1659   1.083       .  S
C1651      C1652   1.403       .  A
C1651      H1660   1.084       .  S
C1652      C1658   1.405       .  A
C1652      C1653   1.415       .  A
C1653      C1655   1.400       .  A
C1653      C1654   1.399       .  A
C1654      H1661   1.085       .  S
C1655      C1656   1.393       .  A
C1655      H1662   1.084       .  S
C1656      C1657   1.403       .  A
C1656      H1663   1.083       .  S
C1657      C1658   1.402       .  A
C1658      H1664   1.085       .  S
C1665      C1666   1.411       .  A
C1665      C1670   1.408       .  A
C1666      C1667   1.396       .  A
C1666      H1675   1.083       .  S
C1667      C1668   1.398       .  A
C1667      H1676   1.084       .  S
C1668      C1674   1.409       .  A
C1668      C1669   1.415       .  A
C1669      C1671   1.400       .  A
C1669      C1670   1.412       .  A
C1670      H1677   1.084       .  S
C1671      C1672   1.399       .  A
C1671      H1678   1.084       .  S
C1672      C1673   1.411       .  A
C1672      H1679   1.083       .  S
C1673      C1674   1.407       .  A
C1674      H1680   1.084       .  S
