geometry optimzed in LAMMPS
_audit_creation_date              2020-11-30 
_audit_creation_method            'lammps2cif' 
_symmetry_space_group_name_H-M    'P1' 
_symmetry_Int_Tables_number       1 
_symmetry_cell_setting            triclinic 
loop_ 
_symmetry_equiv_pos_as_xyz 
  x,y,z 
_cell_length_a                    64.67376657 
_cell_length_b                    65.52120502517064 
_cell_length_c                    39.03422787203794 
_cell_angle_alpha                 85.66653426869885 
_cell_angle_beta                  91.01960475423388 
_cell_angle_gamma                 119.52816753659135 
loop_ 
_atom_site_label 
_atom_site_type_symbol 
_atom_site_fract_x 
_atom_site_fract_y 
_atom_site_fract_z 
_atom_site_charge 
Zr1        Zr  0.81045751  0.33315472  0.17800443     2.17500
O2          O  0.77519243  0.31330777  0.21514378    -0.51100
O3          O  0.79920882  0.36414915  0.17258479    -0.74300
O4          O  0.82100169  0.33978156  0.23883149    -0.81100
O5          O  0.76942888  0.29689720  0.10751930    -0.82800
O6          O  0.86094129  0.35607126  0.24050575    -0.78500
O7          O  0.77009195  0.30580231  0.16273254    -0.90100
O8          O  0.82181998  0.39132296  0.13050602    -0.76000
O9          O  0.84744158  0.36872321  0.17054369    -0.85500
O10         O  0.81317564  0.34629176  0.11885174    -0.85200
O11         O  0.83940409  0.32087866  0.19278525    -0.72000
O12         O  0.80850464  0.30180945  0.14680523    -0.84100
Zr13       Zr  0.87864763  0.34142619  0.09246538     2.26400
Zr14       Zr  0.87631071  0.35684543  0.18418824     2.06300
Zr15       Zr  0.81087004  0.31529299  0.08785216     2.10000
Zr16       Zr  0.85066900  0.38146414  0.11106822     1.78800
O17         O  0.79066136  0.27429786  0.07434847    -0.92900
O18         O  0.87423211  0.41909312  0.13583492    -0.40700
O19         O  0.84809216  0.35109002  0.07808926    -0.77400
O20         O  0.88135957  0.37216962  0.12541197    -0.96100
O21         O  0.87565680  0.32732700  0.15113123    -0.89400
O22         O  0.84152442  0.30568672  0.09986172    -0.92200
C23         C  0.80478308  0.38283770  0.15283372     1.01600
C24         C  0.75916375  0.29516716  0.13635103     1.14500
C25         C  0.84063521  0.34844964  0.25522806     1.05300
O26         O  0.89959565  0.39845419  0.19379214    -0.94400
O27         O  0.91563804  0.36443341  0.17124769    -0.90100
O28         O  0.91911717  0.35828567  0.11560774    -0.83200
C29         C  0.92759377  0.36420289  0.14568474     1.11900
O30         O  0.81442841  0.26425051  0.20533339    -0.96300
Zr31       Zr  0.83924600  0.29173117  0.15830262     1.88900
O32         O  0.88700506  0.30969179  0.08818801    -0.73000
O33         O  0.89661465  0.34688864  0.23020930    -0.52200
O34         O  0.86348969  0.28616964  0.20258426    -0.96900
O35         O  0.81042400  0.25351459  0.13910340    -0.54100
O36         O  0.86349534  0.27947900  0.12660622    -0.73500
C37         C  0.87951760  0.28892520  0.10241650     0.98800
O38         O  0.90750461  0.36711916  0.04773331    -0.62300
O39         O  0.78958960  0.32717714  0.04616047    -0.57100
O40         O  0.86662876  0.33359013  0.03288605    -0.93800
O41         O  0.82628697  0.31656181  0.03134499    -0.92200
O42         O  0.83538613  0.39133131  0.05871274    -0.92600
O43         O  0.88192285  0.41016488  0.07146835    -0.91400
C44         C  0.84674478  0.32418998  0.01710750     1.17700
H45         H  0.80010550  0.34883532  0.11219512     0.33600
H46         H  0.89678082  0.38609165  0.12177591     0.44500
H47         H  0.84038318  0.29429086  0.08445162     0.38000
H48         H  0.83731614  0.31453175  0.21674946     0.34500
H49         H  0.87050210  0.43013070  0.12200789     0.26300
H50         H  0.90320007  0.36024541  0.24499905     0.32200
H51         H  0.87074828  0.27790993  0.19187020     0.38100
H52         H  0.83729654  0.40703604  0.06175829     0.32600
H53         H  0.80211720  0.33997036  0.03103492     0.31500
H54         H  0.77612529  0.27195274  0.06233555     0.33100
H55         H  0.81253387  0.25526319  0.11382777     0.32100
H56         H  0.88757832  0.40091336  0.05965869     0.36100
H57         H  0.91733939  0.38225450  0.05804572     0.28800
H58         H  0.77474916  0.32584125  0.22716264     0.33100
H59         H  0.81827935  0.25134245  0.20675816     0.35900
H60         H  0.78152742  0.31379410  0.03154153     0.28500
H61         H  0.91822397  0.36051955  0.04529352     0.41400
H62         H  0.91181563  0.39943234  0.21026659     0.31500
H63         H  0.86668316  0.41711186  0.15859714     0.39100
H64         H  0.79476072  0.25233835  0.14287100     0.30900
H65         H  0.88396168  0.33351051  0.24440388     0.31000
H66         H  0.77839810  0.30369970  0.23286732     0.31300
Zr67       Zr  0.80318814  0.32380091  0.68226177     2.17500
O68         O  0.77186382  0.29366012  0.72051255    -0.51100
O69         O  0.78979163  0.35242934  0.68872940    -0.74300
O70         O  0.81403419  0.32670277  0.74343078    -0.81100
O71         O  0.76414600  0.30232126  0.60258519    -0.82800
O72         O  0.85361472  0.33946933  0.74577494    -0.78500
O73         O  0.76324423  0.30354113  0.66056683    -0.90100
O74         O  0.81234091  0.38408361  0.65143867    -0.76000
O75         O  0.84049261  0.35891498  0.68299720    -0.85500
O76         O  0.80749068  0.34457815  0.62755529    -0.85200
O77         O  0.83163800  0.31031156  0.68892928    -0.72000
O78         O  0.80138519  0.29842716  0.63915664    -0.84100
Zr79       Zr  0.87369543  0.34359683  0.59242924     2.26400
Zr80       Zr  0.86907414  0.34581556  0.68840991     2.06300
Zr81       Zr  0.80626131  0.31997612  0.58486866     2.10000
Zr82       Zr  0.84469050  0.37975925  0.62866258     1.78800
O83         O  0.78512120  0.28235721  0.55938543    -0.92900
O84         O  0.86368405  0.41141973  0.66697875    -0.40700
O85         O  0.84400038  0.35559179  0.58492342    -0.77400
O86         O  0.87494254  0.36867436  0.63527251    -0.96100
O87         O  0.86852747  0.32147257  0.64570588    -0.89400
O88         O  0.83598695  0.30841151  0.59074390    -0.92200
C89         C  0.79451493  0.37204666  0.67225490     1.01600
C90         C  0.75296045  0.29806091  0.63158798     1.14500
C91         C  0.83330495  0.33221785  0.75996084     1.05300
O92         O  0.89270959  0.38309975  0.71388107    -0.94400
O93         O  0.90978284  0.35857762  0.67406598    -0.90100
O94         O  0.91375753  0.35771355  0.61653908    -0.83200
C95         C  0.92216938  0.36138838  0.64712498     1.11900
O96         O  0.80347282  0.25378558  0.68297752    -0.96300
Zr97       Zr  0.83113798  0.28671406  0.64436947     1.88900
O98         O  0.88230806  0.31309413  0.57801017    -0.73000
O99         O  0.88452356  0.32488902  0.72530198    -0.52200
O100        O  0.85114427  0.27249494  0.68480022    -0.96900
O101        O  0.80292478  0.25280439  0.61451048    -0.54100
O102        O  0.85717511  0.27924402  0.60914453    -0.73500
C103        C  0.87435475  0.29122770  0.58731682     0.98800
O104        O  0.90597047  0.37640576  0.55887950    -0.62300
O105        O  0.78799095  0.33819025  0.54814235    -0.57100
O106        O  0.86430765  0.34309979  0.53147424    -0.93800
O107        O  0.82458447  0.33006529  0.52757426    -0.92200
O108        O  0.83272948  0.39638013  0.57948966    -0.92600
O109        O  0.87818831  0.41443009  0.60028827    -0.91400
C110        C  0.84540651  0.33782700  0.51426900     1.17700
H111        H  0.79446544  0.34753855  0.62286528     0.33600
H112        H  0.89038605  0.38266515  0.63472500     0.44500
H113        H  0.83541842  0.29950105  0.57176853     0.38000
H114        H  0.82891111  0.30121218  0.71069134     0.34500
H115        H  0.86031935  0.42381328  0.65704382     0.26300
H116        H  0.89169029  0.33470862  0.74488512     0.32200
H117        H  0.86807414  0.28123470  0.67729869     0.38100
H118        H  0.83114909  0.40930217  0.58843220     0.32600
H119        H  0.80124702  0.35393121  0.54039457     0.31500
H120        H  0.79565990  0.28339202  0.54045889     0.33100
H121        H  0.80776936  0.25709410  0.58996099     0.32100
H122        H  0.88301216  0.40832596  0.58133270     0.36100
H123        H  0.91040240  0.36915873  0.54109243     0.28800
H124        H  0.76845213  0.30228033  0.73729919     0.33100
H125        H  0.79078425  0.25750813  0.68796994     0.35900
H126        H  0.78336800  0.32934904  0.52726525     0.28500
H127        H  0.89858884  0.38473650  0.54614949     0.41400
H128        H  0.88111993  0.38805424  0.71991157     0.31500
H129        H  0.85398786  0.40533030  0.68851398     0.39100
H130        H  0.78767635  0.25284466  0.61599659     0.30900
H131        H  0.87035244  0.31058046  0.73524643     0.31000
H132        H  0.77929811  0.28563449  0.73393158     0.31300
Zr133      Zr  0.52356762  0.20152107  0.15433842     2.17500
O134        O  0.52812663  0.23103195  0.19300635    -0.51100
O135        O  0.56557804  0.21193287  0.16058886    -0.74300
O136        O  0.51758816  0.18742671  0.21428076    -0.81100
O137        O  0.53869443  0.24773429  0.07951337    -0.82800
O138        O  0.49126770  0.14831446  0.21871693    -0.78500
O139        O  0.54099043  0.24240084  0.13698749    -0.90100
O140        O  0.57332057  0.19030456  0.12566047    -0.76000
O141        O  0.52176812  0.16451232  0.15416152    -0.85500
O142        O  0.53957297  0.20172057  0.10019579    -0.85200
O143        O  0.48166526  0.17401055  0.16126190    -0.72000
O144        O  0.49856124  0.20759940  0.11307688    -0.84100
Zr145      Zr  0.47169374  0.14071962  0.06407374     2.26400
Zr146      Zr  0.48030966  0.13690508  0.16054253     2.06300
Zr147      Zr  0.51529385  0.20789658  0.05911446     2.10000
Zr148      Zr  0.53670730  0.16415249  0.09896863     1.78800
O149        O  0.49991692  0.23189686  0.03078352    -0.92900
O150        O  0.54735849  0.13786250  0.13231025    -0.40700
O151        O  0.51282990  0.17013719  0.05658767    -0.77400
O152        O  0.49576543  0.13470218  0.10651323    -0.96100
O153        O  0.45542570  0.14124294  0.11783823    -0.89400
O154        O  0.47412158  0.17842501  0.06374734    -0.92200
C155        C  0.57988222  0.20637661  0.14671708     1.01600
C156        C  0.54539345  0.25567365  0.10932112     1.14500
C157        C  0.50473814  0.16785438  0.23173617     1.05300
O158        O  0.49427733  0.11022274  0.18282199    -0.94400
O159        O  0.45135144  0.09877207  0.14437472    -0.90100
O160        O  0.44444372  0.09998219  0.08706826    -0.83200
C161        C  0.44029569  0.08932165  0.11742714     1.11900
O162        O  0.45242784  0.20456705  0.15275440    -0.96300
Zr163      Zr  0.45706998  0.17816945  0.11694367     1.88900
O164        O  0.43406467  0.13577729  0.04454120    -0.73000
O165        O  0.44509228  0.11871987  0.19820569    -0.52200
O166        O  0.42475456  0.15614112  0.15894270    -0.96900
O167        O  0.44925216  0.20794705  0.08810380    -0.54100
O168        O  0.42352407  0.15588843  0.07868607    -0.73500
C169        C  0.41958859  0.14237425  0.05406503     0.98800
O170        O  0.47189515  0.11111615  0.03002849    -0.62300
O171        O  0.55240290  0.22773534  0.02554037    -0.57100
O172        O  0.48143685  0.15562197  0.00429702    -0.93800
O173        O  0.50555201  0.19530975  0.00159443    -0.92200
O174        O  0.56520425  0.18217813  0.05106142    -0.92600
O175        O  0.53797484  0.13548614  0.06408837    -0.91400
C176        C  0.49382961  0.17577589  0.98767605     1.17700
H177        H  0.55569840  0.21442614  0.09687305     0.33600
H178        H  0.49414083  0.11930106  0.10523503     0.44500
H179        H  0.46568555  0.18100948  0.04475809     0.38000
H180        H  0.47592048  0.17534022  0.18320743     0.34500
H181        H  0.55053225  0.14363858  0.15559592     0.26300
H182        H  0.44933977  0.11195785  0.21886858     0.32200
H183        H  0.41758466  0.13956823  0.15325088     0.38100
H184        H  0.57924178  0.18094181  0.05876028     0.32600
H185        H  0.55368661  0.24284029  0.01643443     0.31500
H186        H  0.51306477  0.24358038  0.01532604     0.33100
H187        H  0.43375818  0.19917243  0.07692208     0.32100
H188        H  0.52825891  0.13495724  0.04392733     0.36100
H189        H  0.45927939  0.10773793  0.01301023     0.28800
H190        H  0.54021732  0.23211795  0.20981705     0.33100
H191        H  0.46829391  0.21394032  0.16268149     0.35900
H192        H  0.56532697  0.23232233  0.04227201     0.28500
H193        H  0.48695193  0.11932960  0.01638212     0.41400
H194        H  0.50921958  0.12030640  0.19453877     0.31500
H195        H  0.53235799  0.12265629  0.13512085     0.39100
H196        H  0.46099286  0.21511498  0.06884454     0.30900
H197        H  0.44373165  0.13200257  0.20620151     0.31000
H198        H  0.51299649  0.22413502  0.20636457     0.31300
Zr199      Zr  0.51724852  0.20429777  0.65384973     2.17500
O200        O  0.51562447  0.23234017  0.68996879    -0.51100
O201        O  0.55956817  0.21705338  0.66220787    -0.74300
O202        O  0.51122926  0.19095318  0.71411908    -0.81100
O203        O  0.53958515  0.24903889  0.57723724    -0.82800
O204        O  0.48355358  0.15216234  0.71834383    -0.78500
O205        O  0.53712139  0.24505075  0.63539787    -0.90100
O206        O  0.56853350  0.19284214  0.63480385    -0.76000
O207        O  0.51632428  0.16754990  0.65754677    -0.85500
O208        O  0.53549922  0.20349554  0.60217341    -0.85200
O209        O  0.47550066  0.17613579  0.65803673    -0.72000
O210        O  0.49418334  0.20976398  0.60872723    -0.84100
Zr211      Zr  0.47069557  0.14262506  0.56255093     2.26400
Zr212      Zr  0.47502126  0.13937207  0.66045648     2.06300
Zr213      Zr  0.51341231  0.20946133  0.55740313     2.10000
Zr214      Zr  0.53363265  0.16622364  0.60510656     1.78800
O215        O  0.49942065  0.23512488  0.53075610    -0.92900
O216        O  0.54028597  0.13919097  0.64393571    -0.40700
O217        O  0.51206175  0.17199370  0.55831773    -0.77400
O218        O  0.49266606  0.13669104  0.60884849    -0.96100
O219        O  0.45206049  0.14320858  0.61423458    -0.89400
O220        O  0.47228990  0.17992595  0.55951800    -0.92200
C221        C  0.57418475  0.21055639  0.65226013     1.01600
C222        C  0.54493181  0.25746772  0.60694576     1.14500
C223        C  0.49760704  0.17154466  0.73145219     1.05300
O224        O  0.49091639  0.11490479  0.68552431    -0.94400
O225        O  0.44626658  0.10177719  0.64155766    -0.90100
O226        O  0.44224471  0.10229307  0.58357780    -0.83200
C227        C  0.43660549  0.09199716  0.61403295     1.11900
O228        O  0.44729249  0.20630424  0.64475423    -0.96300
Zr229      Zr  0.45292064  0.17979136  0.61053227     1.88900
O230        O  0.43296114  0.13614298  0.54023017    -0.73000
O231        O  0.44137756  0.12048549  0.70102260    -0.52200
O232        O  0.41883261  0.15816592  0.64981296    -0.96900
O233        O  0.44470882  0.20766945  0.57659141    -0.54100
O234        O  0.42049697  0.15566265  0.57245775    -0.73500
C235        C  0.41753939  0.14184934  0.54873154     0.98800
O236        O  0.47461828  0.11357106  0.53181384    -0.62300
O237        O  0.55047053  0.22871362  0.52386020    -0.57100
O238        O  0.48112224  0.15684853  0.50270999    -0.93800
O239        O  0.50503925  0.19653599  0.49968488    -0.92200
O240        O  0.56807317  0.18355495  0.56621005    -0.92600
O241        O  0.53671654  0.13787578  0.57170626    -0.91400
C242        C  0.49367107  0.17688448  0.48590434     1.17700
H243        H  0.55168418  0.21615380  0.59923828     0.33600
H244        H  0.49124696  0.12131752  0.60868189     0.44500
H245        H  0.46441581  0.18204718  0.53943192     0.38000
H246        H  0.46878659  0.17754324  0.67905818     0.34500
H247        H  0.55699999  0.14346421  0.63931491     0.26300
H248        H  0.42751162  0.11850014  0.68746121     0.32200
H249        H  0.41316910  0.14138409  0.64667348     0.38100
H250        H  0.56385491  0.19143596  0.54693593     0.32600
H251        H  0.55219477  0.24403740  0.51493555     0.31500
H252        H  0.48776268  0.22571938  0.51366332     0.33100
H253        H  0.44226637  0.20252265  0.55294572     0.32100
H254        H  0.52742323  0.13701462  0.55090253     0.36100
H255        H  0.48755681  0.12258892  0.51448662     0.28800
H256        H  0.52716378  0.23490752  0.70844783     0.33100
H257        H  0.46288406  0.21572565  0.65539866     0.35900
H258        H  0.56324582  0.23279621  0.54077344     0.28500
H259        H  0.48157802  0.10677901  0.54872378     0.41400
H260        H  0.48362100  0.10062782  0.67261123     0.31500
H261        H  0.54041744  0.14430856  0.66720046     0.39100
H262        H  0.46004170  0.22258557  0.57517852     0.30900
H263        H  0.43865638  0.10431161  0.70629949     0.31000
H264        H  0.49978805  0.22384441  0.70157748     0.31300
Zr265      Zr  0.67182398  0.48091733  0.17168352     2.17500
O266        O  0.68666062  0.46271662  0.21505232    -0.51100
O267        O  0.64261884  0.43858315  0.17420689    -0.74300
O268        O  0.67040323  0.49054203  0.23117770    -0.81100
O269        O  0.70259100  0.47141868  0.09761327    -0.82800
O270        O  0.65172024  0.51208349  0.23219251    -0.78500
O271        O  0.70218758  0.47179233  0.15569924    -0.90100
O272        O  0.60932661  0.43241920  0.14566628    -0.76000
O273        O  0.63587712  0.48261455  0.17145773    -0.85500
O274        O  0.65369150  0.46728962  0.11824195    -0.85200
O275        O  0.68522752  0.52227699  0.17405889    -0.72000
O276        O  0.70067442  0.50698484  0.12799752    -0.84100
Zr277      Zr  0.65652852  0.53479507  0.07511884     2.26400
Zr278      Zr  0.64886429  0.52362177  0.17298293     2.06300
Zr279      Zr  0.68190046  0.49228742  0.07518067     2.10000
Zr280      Zr  0.61809446  0.46979834  0.11753287     1.78800
O281        O  0.71866392  0.50862686  0.04136858    -0.92900
O282        O  0.58398961  0.46236323  0.15265279    -0.40700
O283        O  0.64582527  0.49424406  0.07284481    -0.77400
O284        O  0.62881234  0.51010240  0.12039962    -0.96100
O285        O  0.67546058  0.54906921  0.12759805    -0.89400
O286        O  0.69253817  0.53274967  0.07530128    -0.92200
C287        C  0.62186536  0.42513273  0.16251355     1.01600
C288        C  0.70878004  0.46736220  0.12776605     1.14500
C289        C  0.66185189  0.50137773  0.24696814     1.05300
O290        O  0.60886703  0.50802656  0.19678117    -0.94400
O291        O  0.63822523  0.55294090  0.15573054    -0.90100
O292        O  0.64415020  0.56170000  0.09787537    -0.83200
C293        C  0.63863546  0.56483240  0.12801420     1.11900
O294        O  0.74472562  0.55846486  0.16554790    -0.96300
Zr295      Zr  0.71131466  0.54776942  0.12739299     1.88900
O296        O  0.68827276  0.57269682  0.05280428    -0.73000
O297        O  0.66702695  0.55772938  0.20710216    -0.52200
O298        O  0.71988720  0.58004363  0.16272112    -0.96900
O299        O  0.74713494  0.55219466  0.10039296    -0.54100
O300        O  0.72102061  0.58078499  0.08441242    -0.73500
C301        C  0.71005099  0.58591444  0.06039568     0.98800
O302        O  0.62465581  0.53585213  0.04192863    -0.62300
O303        O  0.66462153  0.45461456  0.04974624    -0.57100
O304        O  0.65653776  0.52346343  0.01632716    -0.93800
O305        O  0.67187686  0.49872834  0.01706350    -0.92200
O306        O  0.59925803  0.43779415  0.07985484    -0.92600
O307        O  0.59002221  0.47095943  0.07609042    -0.91400
C308        C  0.66254747  0.51010179  0.00163043     1.17700
H309        H  0.65078977  0.45173265  0.11438819     0.33600
H310        H  0.61473913  0.51169484  0.11910553     0.44500
H311        H  0.70249028  0.54122517  0.05536336     0.38000
H312        H  0.69351719  0.52798118  0.19498676     0.34500
H313        H  0.57111340  0.44693149  0.14619810     0.26300
H314        H  0.65537486  0.55424512  0.22585623     0.32200
H315        H  0.72997507  0.59454905  0.14796268     0.38100
H316        H  0.61176987  0.43392751  0.07445293     0.32600
H317        H  0.64954385  0.45244551  0.03980734     0.31500
H318        H  0.71715947  0.49529603  0.02907090     0.33100
H319        H  0.74541859  0.55504971  0.07553070     0.32100
H320        H  0.59992120  0.48050894  0.05573733     0.36100
H321        H  0.61843302  0.52239554  0.02739004     0.28800
H322        H  0.67352144  0.45360583  0.23209574     0.33100
H323        H  0.74098144  0.54359976  0.17907146     0.35900
H324        H  0.67502209  0.45743059  0.02959365     0.28500
H325        H  0.61164143  0.53118113  0.05897252     0.41400
H326        H  0.59912565  0.50822400  0.17704517     0.31500
H327        H  0.58788344  0.45916359  0.17638550     0.39100
H328        H  0.74533897  0.53624936  0.10273629     0.30900
H329        H  0.68058218  0.55728079  0.21856766     0.31000
H330        H  0.69921957  0.47562430  0.22744331     0.31300
Zr331      Zr  0.67539907  0.48056419  0.67198510     2.17500
O332        O  0.70598532  0.47902209  0.70742960    -0.51100
O333        O  0.64574442  0.43856576  0.67756427    -0.74300
O334        O  0.66686746  0.48132988  0.73262769    -0.81100
O335        O  0.70198824  0.46714340  0.59746950    -0.82800
O336        O  0.65341560  0.50742892  0.73341093    -0.78500
O337        O  0.69351902  0.45853735  0.65468459    -0.90100
O338        O  0.61548926  0.43272728  0.64155978    -0.76000
O339        O  0.63970082  0.48256120  0.67151566    -0.85500
O340        O  0.65815084  0.46831408  0.61782944    -0.85200
O341        O  0.68903136  0.52166418  0.67675068    -0.72000
O342        O  0.70501916  0.50746749  0.62971968    -0.84100
Zr343      Zr  0.66217402  0.53667314  0.57836417     2.26400
Zr344      Zr  0.65294692  0.52324666  0.67553025     2.06300
Zr345      Zr  0.68709742  0.49399834  0.57622373     2.10000
Zr346      Zr  0.62257628  0.47067396  0.61702329     1.78800
O347        O  0.72667574  0.51249953  0.54990671    -0.92900
O348        O  0.58753939  0.45661945  0.65413306    -0.40700
O349        O  0.65100670  0.49618483  0.57345809    -0.77400
O350        O  0.63357905  0.51098645  0.62211992    -0.96100
O351        O  0.68029106  0.54965323  0.63165284    -0.89400
O352        O  0.69795598  0.53435904  0.57880998    -0.92200
C353        C  0.62655291  0.42532950  0.66191964     1.01600
C354        C  0.70194528  0.45638454  0.62664274     1.14500
C355        C  0.65919538  0.49292058  0.74838985     1.05300
O356        O  0.61175640  0.50803582  0.69375129    -0.94400
O357        O  0.64669636  0.55567435  0.65954378    -0.90100
O358        O  0.65055968  0.56374370  0.60149915    -0.83200
C359        C  0.64656568  0.56749100  0.63205570     1.11900
O360        O  0.74815504  0.55311617  0.66975123    -0.96300
Zr361      Zr  0.71606908  0.54835885  0.63161072     1.88900
O362        O  0.69382732  0.57524816  0.55843340    -0.73000
O363        O  0.66932752  0.55421389  0.71532243    -0.52200
O364        O  0.72407927  0.57827279  0.67131133    -0.96900
O365        O  0.75271322  0.55741920  0.60163082    -0.54100
O366        O  0.72576582  0.58339995  0.59194029    -0.73500
C367        C  0.71518161  0.58879251  0.56749164     0.98800
O368        O  0.63056521  0.53697888  0.54392265    -0.62300
O369        O  0.67203689  0.45990790  0.54237967    -0.57100
O370        O  0.66511678  0.52982863  0.51832306    -0.93800
O371        O  0.68114960  0.50591243  0.51855128    -0.92200
O372        O  0.60866969  0.44560684  0.56924258    -0.92600
O373        O  0.59014933  0.47151211  0.58538704    -0.91400
C374        C  0.67278503  0.51811578  0.50284248     1.17700
H375        H  0.65526277  0.45281251  0.61366281     0.33600
H376        H  0.61963442  0.51282025  0.62097101     0.44500
H377        H  0.70828400  0.54356640  0.55945595     0.38000
H378        H  0.69653134  0.52620068  0.69861462     0.34500
H379        H  0.57539720  0.44199188  0.64443416     0.26300
H380        H  0.65736076  0.54888298  0.73422604     0.32200
H381        H  0.72151120  0.59026739  0.65797092     0.38100
H382        H  0.61866016  0.43802396  0.56942028     0.32600
H383        H  0.65752745  0.45868000  0.53161908     0.31500
H384        H  0.72617269  0.50074508  0.53490863     0.33100
H385        H  0.74967514  0.55922306  0.57695370     0.32100
H386        H  0.59810309  0.48482949  0.56772606     0.36100
H387        H  0.61754644  0.53321484  0.56051040     0.28800
H388        H  0.69731516  0.46574941  0.72490442     0.33100
H389        H  0.76018429  0.57003342  0.66683632     0.35900
H390        H  0.68366181  0.46480991  0.52310259     0.28500
H391        H  0.63669898  0.55370985  0.53593955     0.41400
H392        H  0.60996573  0.52209309  0.69535982     0.31500
H393        H  0.59165073  0.45116580  0.67621312     0.39100
H394        H  0.75338623  0.54260970  0.60420860     0.30900
H395        H  0.68306089  0.55352893  0.72576189     0.31000
H396        H  0.71284311  0.49339167  0.72007972     0.31300
Zr397      Zr  0.31845206  0.81165042  0.16898662     2.17500
O398        O  0.29054213  0.78573693  0.12827734    -0.51100
O399        O  0.34837100  0.79932633  0.16390765    -0.74300
O400        O  0.33103863  0.82689578  0.11015587    -0.81100
O401        O  0.28936416  0.76502533  0.24233839    -0.82800
O402        O  0.34033768  0.86505122  0.10561526    -0.78500
O403        O  0.29820484  0.77033128  0.18531615    -0.90100
O404        O  0.37925513  0.82138016  0.19783767    -0.76000
O405        O  0.35390246  0.84847855  0.16992287    -0.85500
O406        O  0.33482234  0.81081394  0.22358192    -0.85200
O407        O  0.30454985  0.83966358  0.16186435    -0.72000
O408        O  0.28802295  0.80549696  0.21002079    -0.84100
Zr409      Zr  0.32995426  0.87206562  0.25943307     2.26400
Zr410      Zr  0.34032125  0.87643802  0.16319853     2.06300
Zr411      Zr  0.30511504  0.80465201  0.26434059     2.10000
Zr412      Zr  0.37004447  0.84791115  0.22509686     1.78800
O413        O  0.26609797  0.78486698  0.29274175    -0.92900
O414        O  0.40826845  0.87341655  0.19608320    -0.40700
O415        O  0.34088570  0.84203425  0.26672542    -0.77400
O416        O  0.35916983  0.87800104  0.21708501    -0.96100
O417        O  0.31221548  0.87219461  0.20577775    -0.89400
O418        O  0.29410589  0.83483017  0.25970382    -0.92200
C419        C  0.36850782  0.80487833  0.17767270     1.01600
C420        C  0.28949914  0.75711791  0.21300260     1.14500
C421        C  0.33704036  0.84638125  0.09249630     1.05300
O422        O  0.37929125  0.90443130  0.13830865    -0.94400
O423        O  0.35051250  0.91468941  0.18008725    -0.90100
O424        O  0.34457409  0.91320012  0.23768282    -0.83200
C425        C  0.35039746  0.92411742  0.20755339     1.11900
O426        O  0.24749800  0.81051817  0.16577345    -0.96300
Zr427      Zr  0.27668891  0.83561515  0.20595614     1.88900
O428        O  0.29790476  0.87757242  0.27832004    -0.73000
O429        O  0.31977927  0.89163505  0.12541903    -0.52200
O430        O  0.26447547  0.85849789  0.16724718    -0.96900
O431        O  0.24002122  0.80711434  0.23668706    -0.54100
O432        O  0.26756583  0.85998536  0.24150030    -0.73500
C433        C  0.27756177  0.87294910  0.26666913     0.98800
O434        O  0.35858025  0.90268408  0.29413746    -0.62300
O435        O  0.31843450  0.78100632  0.29913142    -0.57100
O436        O  0.32997579  0.85732072  0.31834214    -0.93800
O437        O  0.31457594  0.81768062  0.32207378    -0.92200
O438        O  0.38004494  0.82845967  0.27286073    -0.92600
O439        O  0.39940572  0.87554221  0.26252538    -0.91400
C440        C  0.32372548  0.83753566  0.33544948     1.17700
H441        H  0.33805433  0.79793550  0.22726005     0.33600
H442        H  0.37311183  0.89327133  0.21855746     0.44500
H443        H  0.28366527  0.83263797  0.27871241     0.38000
H444        H  0.29735733  0.83855466  0.13968867     0.34500
H445        H  0.41813498  0.86611638  0.20282214     0.26300
H446        H  0.31059430  0.89556526  0.14108403     0.32200
H447        H  0.26949148  0.85729534  0.14402068     0.38100
H448        H  0.37233906  0.83018294  0.29327825     0.32600
H449        H  0.30379807  0.76604434  0.30579166     0.31500
H450        H  0.25789171  0.76897897  0.28418275     0.33100
H451        H  0.24217523  0.81169426  0.26063401     0.32100
H452        H  0.39080087  0.88195482  0.27462417     0.36100
H453        H  0.34918526  0.90320754  0.31347464     0.28800
H454        H  0.30002520  0.78160755  0.11351413     0.33100
H455        H  0.23297006  0.81146124  0.17014317     0.35900
H456        H  0.32711584  0.77671287  0.28312065     0.28500
H457        H  0.36859486  0.89649331  0.30473808     0.41400
H458        H  0.39066601  0.90469330  0.15581256     0.31500
H459        H  0.40519232  0.87078429  0.17143076     0.39100
H460        H  0.24041490  0.79216226  0.23799808     0.30900
H461        H  0.33245229  0.90708814  0.11552557     0.31000
H462        H  0.28621980  0.79577184  0.11303881     0.31300
Zr463      Zr  0.32610650  0.81338405  0.67098222     2.17500
O464        O  0.29752828  0.78448037  0.63390205    -0.51100
O465        O  0.35645380  0.80127420  0.66550609    -0.74300
O466        O  0.33244688  0.82613498  0.61007214    -0.81100
O467        O  0.29826701  0.76992041  0.75004978    -0.82800
O468        O  0.34540260  0.86535790  0.60383842    -0.78500
O469        O  0.30330227  0.77287682  0.69245285    -0.90100
O470        O  0.38683887  0.82343629  0.69977896    -0.76000
O471        O  0.36169934  0.85037105  0.66827883    -0.85500
O472        O  0.34426065  0.81474725  0.72482227    -0.85200
O473        O  0.31270457  0.84178281  0.66301976    -0.72000
O474        O  0.29740448  0.80943862  0.71325468    -0.84100
Zr475      Zr  0.34017570  0.87734875  0.75742174     2.26400
Zr476      Zr  0.34861665  0.87868841  0.66081997     2.06300
Zr477      Zr  0.31601588  0.81050531  0.76677728     2.10000
Zr478      Zr  0.37946289  0.85223640  0.72275823     1.78800
O479        O  0.27756111  0.78829451  0.79636350    -0.92900
O480        O  0.41443883  0.87420192  0.68506783    -0.40700
O481        O  0.35176847  0.84789481  0.76603598    -0.77400
O482        O  0.36852718  0.88221275  0.71415131    -0.96100
O483        O  0.32149009  0.87579777  0.70405623    -0.89400
O484        O  0.30451232  0.84012596  0.76037281    -0.92200
C485        C  0.37648524  0.80677960  0.67981309     1.01600
C486        C  0.29563523  0.76067659  0.72123652     1.14500
C487        C  0.33899153  0.84550753  0.59176142     1.05300
O488        O  0.38902631  0.90468952  0.63891966    -0.94400
O489        O  0.35565843  0.91664761  0.67512594    -0.90100
O490        O  0.35258019  0.91727451  0.73297116    -0.83200
C491        C  0.35638373  0.92692653  0.70209773     1.11900
O492        O  0.25694990  0.81415781  0.66690825    -0.96300
Zr493      Zr  0.28586845  0.83933124  0.70730453     1.88900
O494        O  0.30928679  0.88530598  0.77409887    -0.73000
O495        O  0.33155632  0.89397380  0.61674116    -0.52200
O496        O  0.27515253  0.86297142  0.66765754    -0.96900
O497        O  0.24905740  0.80963539  0.73635096    -0.54100
O498        O  0.27641902  0.86303003  0.74430885    -0.73500
C499        C  0.28759839  0.87841927  0.76636837     0.98800
O500        O  0.37232027  0.90469778  0.79184553    -0.62300
O501        O  0.33434782  0.79163357  0.80196997    -0.57100
O502        O  0.33628704  0.86447759  0.81815655    -0.93800
O503        O  0.32262867  0.82488465  0.82332055    -0.92200
O504        O  0.39312259  0.83836562  0.77313135    -0.92600
O505        O  0.41300000  0.88265311  0.75155006    -0.91400
C506        C  0.33013314  0.84486248  0.83570345     1.17700
H507        H  0.34736096  0.80184047  0.72950310     0.33600
H508        H  0.38248218  0.89758679  0.71440632     0.44500
H509        H  0.29434644  0.83840947  0.77952243     0.38000
H510        H  0.30480403  0.84002429  0.64131712     0.34500
H511        H  0.41000253  0.86641510  0.66325102     0.26300
H512        H  0.32032044  0.89703837  0.62930820     0.32200
H513        H  0.25860056  0.85827896  0.67422662     0.38100
H514        H  0.38964395  0.82233315  0.76856508     0.32600
H515        H  0.33583732  0.78082432  0.78708780     0.31500
H516        H  0.28040649  0.77988768  0.81643033     0.33100
H517        H  0.24811038  0.81652164  0.75757844     0.32100
H518        H  0.40570193  0.88824444  0.76789089     0.36100
H519        H  0.38515903  0.91528242  0.77513139     0.28800
H520        H  0.30693626  0.78204671  0.61655295     0.33100
H521        H  0.24278376  0.81600409  0.66959264     0.35900
H522        H  0.35090981  0.80423838  0.80470508     0.28500
H523        H  0.36639097  0.91463411  0.80084289     0.41400
H524        H  0.38882334  0.91883329  0.62845895     0.31500
H525        H  0.41535759  0.88962019  0.67946618     0.39100
H526        H  0.25224608  0.79678979  0.74447327     0.30900
H527        H  0.34466465  0.90976388  0.60884863     0.31000
H528        H  0.28980686  0.79241204  0.62097600     0.31300
Zr529      Zr  0.20987522  0.52943566  0.18615314     2.17500
O530        O  0.24216703  0.52846190  0.15658733    -0.51100
O531        O  0.22166757  0.57094619  0.17212426    -0.74300
O532        O  0.20013628  0.52338496  0.12573437    -0.81100
O533        O  0.24905806  0.55500944  0.26165193    -0.82800
O534        O  0.16108144  0.49551147  0.12566910    -0.78500
O535        O  0.24978174  0.55330269  0.20386220    -0.90100
O536        O  0.19465676  0.57798393  0.19773925    -0.76000
O537        O  0.17133116  0.52522305  0.18030042    -0.85500
O538        O  0.20401019  0.54640930  0.23425281    -0.85200
O539        O  0.18374106  0.48761344  0.18785129    -0.72000
O540        O  0.21416627  0.50777039  0.23580735    -0.84100
Zr541      Zr  0.14148237  0.47994326  0.28059413     2.26400
Zr542      Zr  0.14511807  0.48365413  0.18334539     2.06300
Zr543      Zr  0.20840667  0.52548677  0.28310670     2.10000
Zr544      Zr  0.16540866  0.54201132  0.22851509     1.78800
O545        O  0.23350188  0.51178216  0.31197451    -0.92900
O546        O  0.14168882  0.54892166  0.18487945    -0.40700
O547        O  0.16931232  0.52137944  0.27919910    -0.77400
O548        O  0.13752190  0.50083932  0.23007184    -0.96100
O549        O  0.14739854  0.46197728  0.23375997    -0.89400
O550        O  0.18034038  0.48431257  0.28621536    -0.92200
C551        C  0.21400734  0.58465887  0.18081143     1.01600
C552        C  0.25981947  0.56152210  0.23195231     1.14500
C553        C  0.18097279  0.50972911  0.11048254     1.05300
O554        O  0.11815171  0.49169364  0.14798895    -0.94400
O555        O  0.10485139  0.45577741  0.20098792    -0.90100
O556        O  0.10139202  0.45349267  0.25926020    -0.83200
C557        C  0.09280044  0.44750337  0.22922272     1.11900
O558        O  0.21704943  0.46295236  0.21046932    -0.96300
Zr559      Zr  0.18594368  0.46631706  0.23949681     1.88900
O560        O  0.13475801  0.44222139  0.30525178    -0.73000
O561        O  0.13518014  0.44775698  0.15602169    -0.52200
O562        O  0.17200965  0.43352936  0.20326492    -0.96900
O563        O  0.21240039  0.46157762  0.28065578    -0.54100
O564        O  0.15961718  0.43270763  0.27907975    -0.73500
C565        C  0.14308505  0.42843917  0.30105752     0.98800
O566        O  0.11143942  0.48282814  0.31326190    -0.62300
O567        O  0.22292238  0.55911482  0.31774920    -0.57100
O568        O  0.15166426  0.48891959  0.34038556    -0.93800
O569        O  0.19088696  0.51631504  0.34021582    -0.92200
O570        O  0.17601964  0.57230177  0.26846997    -0.92600
O571        O  0.13266376  0.54433841  0.25420714    -0.91400
C572        C  0.17081034  0.50274836  0.35565121     1.17700
H573        H  0.21594225  0.56260754  0.23610130     0.33600
H574        H  0.12159220  0.49853826  0.22886510     0.44500
H575        H  0.18156805  0.47685242  0.30787293     0.38000
H576        H  0.18718730  0.48148948  0.16831842     0.34500
H577        H  0.15150198  0.55388467  0.16349045     0.26300
H578        H  0.12432447  0.44704883  0.13736523     0.32200
H579        H  0.15446011  0.42558828  0.20521572     0.38100
H580        H  0.19361654  0.58095947  0.26820101     0.32600
H581        H  0.23887269  0.56218726  0.32508920     0.31500
H582        H  0.23171639  0.51312998  0.33670739     0.33100
H583        H  0.21150588  0.44654040  0.27586476     0.32100
H584        H  0.12297692  0.52884854  0.26699402     0.36100
H585        H  0.10232566  0.48674190  0.29593946     0.28800
H586        H  0.24701437  0.54062584  0.13716505     0.33100
H587        H  0.23021629  0.47934559  0.20654658     0.35900
H588        H  0.22600329  0.57257549  0.30120319     0.28500
H589        H  0.10032534  0.46652251  0.32238779     0.41400
H590        H  0.11131013  0.47896583  0.13209745     0.31500
H591        H  0.12837198  0.53306993  0.18104245     0.39100
H592        H  0.20436206  0.45816812  0.30338996     0.30900
H593        H  0.14994318  0.45096223  0.14397735     0.31000
H594        H  0.23474939  0.51321587  0.14610449     0.31300
Zr595      Zr  0.20440223  0.53083113  0.68898358     2.17500
O596        O  0.23767163  0.54833364  0.64753099    -0.51100
O597        O  0.21654450  0.57302904  0.68545524    -0.74300
O598        O  0.19336099  0.52304351  0.62905053    -0.81100
O599        O  0.24605389  0.53810904  0.76320365    -0.82800
O600        O  0.15394631  0.49692391  0.62705560    -0.78500
O601        O  0.24422181  0.54006839  0.70497625    -0.90100
O602        O  0.18918656  0.57844684  0.71295226    -0.76000
O603        O  0.16678777  0.52926673  0.68909834    -0.85500
O604        O  0.20118410  0.54436619  0.74249017    -0.85200
O605        O  0.17639013  0.48942204  0.68516853    -0.72000
O606        O  0.20750209  0.50402447  0.73199547    -0.84100
Zr607      Zr  0.13654092  0.47582822  0.78251360     2.26400
Zr608      Zr  0.13877806  0.48836636  0.68563499     2.06300
Zr609      Zr  0.20457035  0.51837864  0.78491544     2.10000
Zr610      Zr  0.16296781  0.54157090  0.74362496     1.78800
O611        O  0.22727530  0.50394580  0.81901652    -0.92900
O612        O  0.13533400  0.55087393  0.71247788    -0.40700
O613        O  0.16634113  0.51610368  0.78737198    -0.77400
O614        O  0.13311263  0.50148418  0.73850672    -0.96100
O615        O  0.14037088  0.46193712  0.72993567    -0.89400
O616        O  0.17464312  0.47797346  0.78327594    -0.92200
C617        C  0.20857372  0.58609383  0.69587504     1.01600
C618        C  0.25572220  0.54290353  0.73291030     1.14500
C619        C  0.17446834  0.51000422  0.61288272     1.05300
O620        O  0.11724671  0.50770560  0.66166525    -0.94400
O621        O  0.09935076  0.45805281  0.70253362    -0.90100
O622        O  0.09668584  0.44969261  0.76044085    -0.83200
C623        C  0.08789782  0.44648235  0.73007415     1.11900
O624        O  0.20347909  0.45662732  0.69476784    -0.96300
Zr625      Zr  0.17752250  0.46322196  0.73130756     1.88900
O626        O  0.13052129  0.43798136  0.80465501    -0.73000
O627        O  0.11501642  0.45552421  0.65080190    -0.52200
O628        O  0.15482605  0.43143737  0.69443979    -0.96900
O629        O  0.20726717  0.45615731  0.76055528    -0.54100
O630        O  0.15383635  0.42940158  0.77325876    -0.73500
C631        C  0.13831710  0.42420662  0.79746999     0.98800
O632        O  0.10403363  0.47401778  0.81581203    -0.62300
O633        O  0.22227376  0.55517593  0.81285412    -0.57100
O634        O  0.14793370  0.48401299  0.84169955    -0.93800
O635        O  0.18821572  0.50697643  0.84250519    -0.92200
O636        O  0.18088775  0.57111458  0.78539649    -0.92600
O637        O  0.13531946  0.54231778  0.78439661    -0.91400
C638        C  0.16763167  0.49537871  0.85717045     1.17700
H639        H  0.21385737  0.56000466  0.74607188     0.33600
H640        H  0.11750395  0.49995852  0.73972388     0.44500
H641        H  0.17621727  0.46903157  0.80298423     0.38000
H642        H  0.17893143  0.48402322  0.66418434     0.34500
H643        H  0.13883993  0.56632623  0.72004733     0.26300
H644        H  0.10953368  0.46209383  0.63132207     0.32200
H645        H  0.15314751  0.43931465  0.67277463     0.38100
H646        H  0.18004172  0.58498005  0.77518364     0.32600
H647        H  0.20925782  0.55414561  0.82716979     0.31500
H648        H  0.23476261  0.51527505  0.83682969     0.33100
H649        H  0.20053798  0.44945628  0.78392811     0.32100
H650        H  0.12612815  0.52591433  0.79451956     0.36100
H651        H  0.09947269  0.46065804  0.83327569     0.28800
H652        H  0.23453703  0.55851168  0.63067032     0.33100
H653        H  0.20310982  0.46399551  0.67184155     0.35900
H654        H  0.23336733  0.55395422  0.82959048     0.28500
H655        H  0.11120173  0.48816158  0.82901936     0.41400
H656        H  0.10639912  0.50624807  0.68043577     0.31500
H657        H  0.14111678  0.55427670  0.68828298     0.39100
H658        H  0.22063757  0.47204216  0.76407775     0.30900
H659        H  0.12629469  0.45153718  0.64047945     0.31000
H660        H  0.23645332  0.53536925  0.63457279     0.31300
Zr661      Zr  0.49021604  0.69711556  0.16412381     2.17500
O662        O  0.49116824  0.72618940  0.12038592    -0.51100
O663        O  0.44757698  0.66959865  0.16306251    -0.74300
O664        O  0.49086060  0.68531996  0.10602582    -0.81100
O665        O  0.47371386  0.72185155  0.23681154    -0.82800
O666        O  0.51686811  0.67163910  0.10700593    -0.78500
O667        O  0.47054913  0.71826141  0.17928287    -0.90100
O668        O  0.43961103  0.63860949  0.20161805    -0.76000
O669        O  0.49112275  0.66122119  0.17009035    -0.85500
O670        O  0.47568593  0.68039578  0.22095397    -0.85200
O671        O  0.53158394  0.70928974  0.15656518    -0.72000
O672        O  0.51628502  0.72589290  0.20241649    -0.84100
Zr673      Zr  0.54318123  0.68223277  0.25852417     2.26400
Zr674      Zr  0.53224830  0.67310785  0.16391665     2.06300
Zr675      Zr  0.50125189  0.70831059  0.25885614     2.10000
Zr676      Zr  0.47664729  0.64454185  0.22670787     1.78800
O677        O  0.51826877  0.74850764  0.27528118    -0.92900
O678        O  0.46387470  0.60951681  0.19568671    -0.40700
O679        O  0.50221375  0.67200330  0.26616792    -0.77400
O680        O  0.51733715  0.65420632  0.21977099    -0.96100
O681        O  0.55839960  0.70023870  0.20281313    -0.89400
O682        O  0.54197266  0.71829986  0.25318983    -0.92200
C683        C  0.43325715  0.65017405  0.18008628     1.01600
C684        C  0.46571698  0.72431709  0.20717858     1.14500
C685        C  0.50223572  0.67667115  0.09142575     1.05300
O686        O  0.51949082  0.63301176  0.15030309    -0.94400
O687        O  0.56187678  0.66296166  0.18116409    -0.90100
O688        O  0.56838038  0.66664358  0.23833832    -0.83200
C689        C  0.57228924  0.66156165  0.20864790     1.11900
O690        O  0.56409044  0.76841469  0.15581493    -0.96300
Zr691      Zr  0.55728907  0.73592846  0.19733567     1.88900
O692        O  0.58247246  0.71327246  0.27033680    -0.73000
O693        O  0.56553258  0.69118849  0.12269087    -0.52200
O694        O  0.58826779  0.74494047  0.15476018    -0.96900
O695        O  0.56634329  0.77269351  0.22127730    -0.54100
O696        O  0.59161113  0.74529245  0.23372643    -0.73500
C697        C  0.59636107  0.73457980  0.25897544     0.98800
O698        O  0.54369389  0.65159716  0.29748831    -0.62300
O699        O  0.46874856  0.69403940  0.30088845    -0.57100
O700        O  0.53635317  0.68716807  0.31808103    -0.93800
O701        O  0.51211393  0.70312851  0.31737627    -0.92200
O702        O  0.44725557  0.63069892  0.27338759    -0.92600
O703        O  0.47557133  0.61300522  0.26528129    -0.91400
C704        C  0.52459392  0.69522381  0.33312726     1.17700
H705        H  0.45995082  0.67788549  0.22544243     0.33600
H706        H  0.51851789  0.64005000  0.22295788     0.44500
H707        H  0.55112689  0.72850748  0.27071336     0.38000
H708        H  0.53687263  0.71643358  0.13351800     0.34500
H709        H  0.44810740  0.59802148  0.20599016     0.26300
H710        H  0.56420755  0.67810969  0.10995815     0.32200
H711        H  0.59651234  0.73645123  0.16404863     0.38100
H712        H  0.45347860  0.64375696  0.28868402     0.32600
H713        H  0.46770303  0.70812550  0.30571802     0.31500
H714        H  0.53340736  0.75195128  0.28636381     0.33100
H715        H  0.57105738  0.77127370  0.24522215     0.32100
H716        H  0.48972160  0.62091556  0.27967880     0.36100
H717        H  0.55663355  0.66008268  0.31360357     0.28800
H718        H  0.47711703  0.71743091  0.10613286     0.33100
H719        H  0.54879857  0.76846016  0.15518211     0.35900
H720        H  0.45419210  0.68438306  0.28809569     0.28500
H721        H  0.52888294  0.64480003  0.31158945     0.41400
H722        H  0.50192920  0.62517214  0.15058723     0.31500
H723        H  0.46034007  0.61379186  0.17231554     0.39100
H724        H  0.55079901  0.77202834  0.22352625     0.30900
H725        H  0.56195211  0.70094994  0.10568001     0.31000
H726        H  0.50503916  0.73039340  0.10525170     0.31300
Zr727      Zr  0.48746740  0.68617638  0.66719451     2.17500
O728        O  0.47343472  0.70506143  0.62393735    -0.51100
O729        O  0.44543040  0.65359184  0.66864987    -0.74300
O730        O  0.49575714  0.68194992  0.60787709    -0.81100
O731        O  0.47937262  0.72084759  0.73530197    -0.82800
O732        O  0.52480918  0.67215241  0.60761354    -0.78500
O733        O  0.47169758  0.71154382  0.67994802    -0.90100
O734        O  0.44350871  0.62441195  0.70535500    -0.76000
O735        O  0.49352556  0.65309858  0.67299707    -0.85500
O736        O  0.47463854  0.66947020  0.72420453    -0.85200
O737        O  0.53013163  0.70295558  0.65966646    -0.72000
O738        O  0.51252116  0.71673713  0.70396743    -0.84100
Zr739      Zr  0.54601866  0.67981943  0.76166648     2.26400
Zr740      Zr  0.53561807  0.66936452  0.66650738     2.06300
Zr741      Zr  0.49885252  0.69958556  0.76067485     2.10000
Zr742      Zr  0.48130484  0.63666772  0.73043895     1.78800
O743        O  0.51438449  0.73551261  0.79034851    -0.92900
O744        O  0.47344642  0.60235266  0.70038543    -0.40700
O745        O  0.50442478  0.66599589  0.76836835    -0.77400
O746        O  0.52276456  0.65040310  0.72295716    -0.96100
O747        O  0.55997637  0.69788436  0.70531430    -0.89400
O748        O  0.54067130  0.71362639  0.75595951    -0.92200
C749        C  0.43364909  0.63318177  0.68523100     1.01600
C750        C  0.47099678  0.72229520  0.70562042     1.14500
C751        C  0.51018890  0.67739307  0.59236381     1.05300
O752        O  0.52204908  0.62940391  0.65132026    -0.94400
O753        O  0.56604207  0.66066650  0.68525574    -0.90100
O754        O  0.57091565  0.66358563  0.74288462    -0.83200
C755        C  0.57556809  0.65884792  0.71345785     1.11900
O756        O  0.55801165  0.76003764  0.65372282    -0.96300
Zr757      Zr  0.55461212  0.73121626  0.69967020     1.88900
O758        O  0.58389300  0.71353990  0.77292240    -0.73000
O759        O  0.56998480  0.68660818  0.62712261    -0.52200
O760        O  0.58928342  0.74661206  0.66151948    -0.96900
O761        O  0.55570948  0.76529233  0.72268017    -0.54100
O762        O  0.58992717  0.74438727  0.73563893    -0.73500
C763        C  0.59640561  0.73493503  0.76059974     0.98800
O764        O  0.54981683  0.65446289  0.80736438    -0.62300
O765        O  0.46038045  0.68329242  0.79019014    -0.57100
O766        O  0.53365837  0.67920223  0.82093347    -0.93800
O767        O  0.50472584  0.68953775  0.81932178    -0.92200
O768        O  0.45242141  0.62216401  0.77784156    -0.92600
O769        O  0.48214433  0.60753185  0.77224349    -0.91400
C770        C  0.51795982  0.68266811  0.83524433     1.17700
H771        H  0.45829073  0.66508867  0.72862747     0.33600
H772        H  0.52557593  0.63722357  0.72622615     0.44500
H773        H  0.54898114  0.72437056  0.77337959     0.38000
H774        H  0.53517126  0.71067224  0.63689919     0.34500
H775        H  0.48730693  0.60007480  0.70498448     0.26300
H776        H  0.56625497  0.67495007  0.60994969     0.32200
H777        H  0.58959237  0.73253162  0.65466514     0.38100
H778        H  0.44717641  0.63400207  0.77850513     0.32600
H779        H  0.46225566  0.69549102  0.80540690     0.31500
H780        H  0.50018873  0.73505120  0.80036002     0.33100
H781        H  0.56622031  0.76871029  0.74269232     0.32100
H782        H  0.49921252  0.61282492  0.77551706     0.36100
H783        H  0.54365310  0.63900958  0.79772097     0.28800
H784        H  0.46002605  0.69216531  0.61272747     0.33100
H785        H  0.54142266  0.75632558  0.64948554     0.35900
H786        H  0.44918552  0.68328571  0.77255601     0.28500
H787        H  0.56709983  0.66054541  0.80978660     0.41400
H788        H  0.51624640  0.62890515  0.62759875     0.31500
H789        H  0.46008042  0.58889814  0.71344228     0.39100
H790        H  0.53963881  0.75933071  0.73277406     0.30900
H791        H  0.56980375  0.70013007  0.61424612     0.31000
H792        H  0.48609009  0.71343460  0.60600715     0.31300
Zr793      Zr  0.21413846  0.01406123  0.89090875     2.17500
O794        O  0.24288286  0.03595724  0.84401743    -0.51100
O795        O  0.22474187  0.98343071  0.88336319    -0.74300
O796        O  0.25499342  0.04160685  0.91108848    -0.81100
O797        O  0.15979894  0.99417037  0.83164581    -0.82800
O798        O  0.25236592  0.04697328  0.96742582    -0.78500
O799        O  0.20029760  0.01246587  0.83134331    -0.90100
O800        O  0.20294563  0.95182690  0.92026316    -0.76000
O801        O  0.21348160  0.99827496  0.94813532    -0.85500
O802        O  0.17873625  0.97630482  0.89743967    -0.85200
O803        O  0.21303928  0.04180954  0.92694133    -0.72000
O804        O  0.18046157  0.02003873  0.88158354    -0.84100
Zr805      Zr  0.14461208  0.99656595  0.98286959     2.26400
Zr806      Zr  0.21137793  0.02512504  0.98432019     2.06300
Zr807      Zr  0.14522380  0.98222222  0.89024170     2.10000
Zr808      Zr  0.17808721  0.96109732  0.95472607     1.78800
O809        O  0.11692151  0.98831973  0.85527026    -0.92900
O810        O  0.20180242  0.95242187  0.99622057    -0.40700
O811        O  0.14487351  0.96769497  0.94805490    -0.77400
O812        O  0.17635616  0.98764121  0.99257834    -0.96100
O813        O  0.17967195  0.03382494  0.97540111    -0.89400
O814        O  0.14479845  0.01020636  0.92469241    -0.92200
C815        C  0.21829453  0.96226841  0.89565702     1.01600
C816        C  0.18014721  0.00469171  0.81624703     1.14500
C817        C  0.26419728  0.05074369  0.93965001     1.05300
O818        O  0.23210811  0.00824322  0.01799943    -0.94400
O819        O  0.19760914  0.02081320  0.04258584    -0.90100
O820        O  0.15798519  0.00758548  0.04126407    -0.83200
C821        C  0.17763280  0.01448103  0.05722461     1.11900
O822        O  0.20912167  0.07997447  0.87953449    -0.96300
Zr823      Zr  0.17959578  0.04765580  0.91715957     1.88900
O824        O  0.12544934  0.02150651  0.97635424    -0.73000
O825        O  0.23123581  0.06327926  0.00845215    -0.52200
O826        O  0.19783767  0.08384500  0.94648637    -0.96900
O827        O  0.16185870  0.05545218  0.86577347    -0.54100
O828        O  0.14665923  0.05183938  0.93651401    -0.73500
C829        C  0.12882301  0.03990682  0.95712871     0.98800
O830        O  0.11612551  0.97149318  0.02858948    -0.62300
O831        O  0.13207783  0.94416679  0.86755975    -0.57100
O832        O  0.10511188  0.96634143  0.97113169    -0.93800
O833        O  0.10451959  0.95981577  0.91462874    -0.92200
O834        O  0.15094377  0.92453404  0.92956933    -0.92600
O835        O  0.15432918  0.92984721  0.99841748    -0.91400
C836        C  0.09439249  0.95634660  0.94432211     1.17700
H837        H  0.17833201  0.96596030  0.88075083     0.33600
H838        H  0.17521984  0.98093542  0.01582506     0.44500
H839        H  0.13051908  0.01064520  0.91879463     0.38000
H840        H  0.22707789  0.05704903  0.92325800     0.34500
H841        H  0.21831610  0.96169302  0.98700403     0.26300
H842        H  0.21829829  0.06538155  0.01767640     0.32200
H843        H  0.18920487  0.09219413  0.93832523     0.38100
H844        H  0.13512844  0.92335632  0.93119652     0.32600
H845        H  0.11547345  0.93417083  0.87609845     0.31500
H846        H  0.10751506  0.97342776  0.84414303     0.33100
H847        H  0.14458086  0.04442392  0.86876871     0.32100
H848        H  0.14418758  0.93522116  0.00890433     0.36100
H849        H  0.12440405  0.96503928  0.04355065     0.28800
H850        H  0.25621495  0.03276395  0.84813641     0.33100
H851        H  0.21278201  0.07218451  0.86167917     0.35900
H852        H  0.13066384  0.94686949  0.84254063     0.28500
H853        H  0.11362113  0.98204340  0.04274702     0.41400
H854        H  0.24638394  0.02188108  0.02645047     0.31500
H855        H  0.20169579  0.96026287  0.01686445     0.39100
H856        H  0.16358484  0.07116066  0.86809974     0.30900
H857        H  0.23931508  0.06106077  0.02901576     0.31000
H858        H  0.24944624  0.05278658  0.84792055     0.31300
Zr859      Zr  0.21022294  0.01254635  0.39018518     2.17500
O860        O  0.24027011  0.03170328  0.34417154    -0.51100
O861        O  0.21772887  0.98015306  0.37968048    -0.74300
O862        O  0.25132144  0.03834084  0.41058651    -0.81100
O863        O  0.15726023  0.99643449  0.33002734    -0.82800
O864        O  0.24990081  0.03858403  0.46872330    -0.78500
O865        O  0.19770282  0.01562671  0.33101203    -0.90100
O866        O  0.19445693  0.94856538  0.41594829    -0.76000
O867        O  0.20835560  0.99517473  0.44678103    -0.85500
O868        O  0.17306590  0.97638858  0.39494345    -0.85200
O869        O  0.21143278  0.04048407  0.42800474    -0.72000
O870        O  0.17876076  0.02199255  0.38175563    -0.84100
Zr871      Zr  0.14252772  0.99777371  0.48224573     2.26400
Zr872      Zr  0.20879538  0.02256510  0.48475941     2.06300
Zr873      Zr  0.14167541  0.98571205  0.38827864     2.10000
Zr874      Zr  0.17134588  0.95939414  0.45143751     1.78800
O875        O  0.11864638  0.99764766  0.35017349    -0.92900
O876        O  0.19407598  0.94894116  0.49236916    -0.40700
O877        O  0.13980108  0.96868985  0.44516199    -0.77400
O878        O  0.17237296  0.98624283  0.49087194    -0.96100
O879        O  0.17895457  0.03390263  0.47679265    -0.89400
O880        O  0.14357362  0.01376343  0.42511928    -0.92200
C881        C  0.20989191  0.95861859  0.39135185     1.01600
C882        C  0.17783960  0.00776126  0.31522882     1.14500
C883        C  0.26125067  0.04438859  0.43995658     1.05300
O884        O  0.22646503  0.00682099  0.52699146    -0.94400
O885        O  0.19435803  0.01929035  0.54298127    -0.90100
O886        O  0.15457347  0.00528031  0.54175761    -0.83200
C887        C  0.17426009  0.01267649  0.55777560     1.11900
O888        O  0.21001748  0.08227423  0.38249030    -0.96300
Zr889      Zr  0.18007926  0.04971150  0.41936828     1.88900
O890        O  0.12718902  0.02554254  0.48147876    -0.73000
O891        O  0.23181570  0.06301835  0.50017929    -0.52200
O892        O  0.20041700  0.08504849  0.45045800    -0.96900
O893        O  0.16462320  0.06103553  0.36835986    -0.54100
O894        O  0.14918019  0.05590056  0.44223144    -0.73500
C895        C  0.13168300  0.04472011  0.46370813     0.98800
O896        O  0.11692321  0.97371299  0.53114009    -0.62300
O897        O  0.12410721  0.94688910  0.36634669    -0.57100
O898        O  0.10201401  0.97348231  0.46603640    -0.93800
O899        O  0.10020420  0.96726130  0.40968209    -0.92200
O900        O  0.14367150  0.92236643  0.42792107    -0.92600
O901        O  0.14500326  0.92950986  0.49490522    -0.91400
C902        C  0.09023958  0.96501084  0.43908565     1.17700
H903        H  0.17192825  0.96610198  0.37768324     0.33600
H904        H  0.17075249  0.97894282  0.51385120     0.44500
H905        H  0.13005784  0.01586848  0.42014248     0.38000
H906        H  0.22609255  0.05514438  0.42478333     0.34500
H907        H  0.18975361  0.93266027  0.48781122     0.26300
H908        H  0.21989495  0.06698794  0.50820194     0.32200
H909        H  0.21721446  0.08874476  0.45099150     0.38100
H910        H  0.12815232  0.92192551  0.42797425     0.32600
H911        H  0.10938602  0.94477543  0.35519883     0.31500
H912        H  0.11882510  0.01101944  0.36067532     0.33100
H913        H  0.14869999  0.05814239  0.37530672     0.32100
H914        H  0.13256081  0.93372058  0.49911226     0.36100
H915        H  0.10413551  0.97783480  0.53206484     0.28800
H916        H  0.25222763  0.02666607  0.34910960     0.33100
H917        H  0.21874321  0.07557958  0.37137052     0.35900
H918        H  0.13468445  0.94865036  0.34697829     0.28500
H919        H  0.10899791  0.95729179  0.52452648     0.41400
H920        H  0.21648845  0.98953756  0.52684486     0.31500
H921        H  0.21078169  0.95857429  0.48405498     0.39100
H922        H  0.16132828  0.04885502  0.35227915     0.30900
H923        H  0.24034074  0.06220471  0.52108033     0.31000
H924        H  0.24852903  0.04872418  0.34766106     0.31300
Zr925      Zr  0.01321445  0.21277993  0.97717502     2.17500
O926        O  0.04121359  0.24070054  0.01563654    -0.51100
O927        O  0.98256063  0.22294640  0.98916910    -0.74300
O928        O  0.03614828  0.25296307  0.94773146    -0.81100
O929        O  0.99137236  0.16280000  0.04820664    -0.82800
O930        O  0.04132724  0.24848114  0.89192288    -0.78500
O931        O  0.01122675  0.20280511  0.03900348    -0.90100
O932        O  0.95016266  0.20124790  0.95752936    -0.76000
O933        O  0.99693566  0.21074229  0.92162036    -0.85500
O934        O  0.97491711  0.17795124  0.98011810    -0.85200
O935        O  0.04080810  0.21040261  0.93922073    -0.72000
O936        O  0.01938543  0.17982636  0.99179386    -0.84100
Zr937      Zr  0.99282381  0.14098289  0.89950654     2.26400
Zr938      Zr  0.02347316  0.20724525  0.88379031     2.06300
Zr939      Zr  0.98095433  0.14519685  0.99359338     2.10000
Zr940      Zr  0.95900752  0.17621469  0.92437170     1.78800
O941        O  0.99125051  0.12165048  0.03408764    -0.92900
O942        O  0.95272668  0.20148437  0.88141681    -0.40700
O943        O  0.96489851  0.14303880  0.93748795    -0.77400
O944        O  0.98515566  0.17300950  0.88499694    -0.96100
O945        O  0.03101547  0.17525696  0.89715629    -0.89400
O946        O  0.00793171  0.14265589  0.95588696    -0.92200
C947        C  0.96123128  0.21650641  0.97952181     1.01600
C948        C  0.00262671  0.18361685  0.05856348     1.14500
C949        C  0.04404571  0.26126050  0.91667488     1.05300
O950        O  0.00867047  0.22564785  0.84104069    -0.94400
O951        O  0.01860016  0.19074460  0.82919616    -0.90100
O952        O  0.00088406  0.15101937  0.83713060    -0.83200
C953        C  0.01007592  0.17037307  0.81770079     1.11900
O954        O  0.08067421  0.20513876  0.98334921    -0.96300
Zr955      Zr  0.04610703  0.17690861  0.95354232     1.88900
O956        O  0.01796289  0.12217845  0.90349364    -0.73000
O957        O  0.06340730  0.22608590  0.85842971    -0.52200
O958        O  0.08168736  0.19396040  0.91684903    -0.96900
O959        O  0.05512886  0.16139949  0.00689885    -0.54100
O960        O  0.04881649  0.14307951  0.93812890    -0.73500
C961        C  0.03665363  0.12551934  0.92018422     0.98800
O962        O  0.96747146  0.11329763  0.85862984    -0.62300
O963        O  0.94227087  0.13143578  0.02082292    -0.57100
O964        O  0.96327836  0.10296540  0.92496086    -0.93800
O965        O  0.95769244  0.10366497  0.98184687    -0.92200
O966        O  0.91966097  0.14994897  0.94965322    -0.92600
O967        O  0.92985651  0.15286562  0.88294153    -0.91400
C968        C  0.95367215  0.09282546  0.95428063     1.17700
H969        H  0.96469945  0.17803884  0.99777860     0.33600
H970        H  0.97820603  0.17140302  0.86258703     0.44500
H971        H  0.00831542  0.12855774  0.96360198     0.38000
H972        H  0.05606551  0.22458732  0.93922597     0.34500
H973        H  0.96357813  0.21771739  0.88765382     0.26300
H974        H  0.06387803  0.23806370  0.84090708     0.32200
H975        H  0.07663875  0.18532120  0.89580192     0.38100
H976        H  0.91033758  0.15792987  0.94353144     0.32600
H977        H  0.93083279  0.12521529  0.00203385     0.31500
H978        H  0.97797342  0.11427384  0.05121379     0.33100
H979        H  0.06785813  0.15803292  0.00063415     0.32100
H980        H  0.93280620  0.13961193  0.88011435     0.36100
H981        H  0.96847413  0.09875883  0.86352342     0.28800
H982        H  0.03715902  0.25343082  0.01557970     0.33100
H983        H  0.07479214  0.21389262  0.99596506     0.35900
H984        H  0.93936401  0.11730370  0.03568164     0.28500
H985        H  0.95094160  0.10898279  0.86474964     0.41400
H986        H  0.02234724  0.23548175  0.82513451     0.31500
H987        H  0.95971040  0.20021870  0.85986156     0.39100
H988        H  0.04101114  0.14569942  0.01183053     0.30900
H989        H  0.07401375  0.23529403  0.87665811     0.31000
H990        H  0.05691209  0.24784487  0.00379179     0.31300
Zr991      Zr  0.01537819  0.21758197  0.47924785     2.17500
O992        O  0.03756503  0.24605766  0.52113005    -0.51100
O993        O  0.98337099  0.22620858  0.48913061    -0.74300
O994        O  0.04011842  0.25834440  0.45219197    -0.81100
O995        O  0.99701020  0.16552819  0.54658479    -0.82800
O996        O  0.04732485  0.25622766  0.39606214    -0.78500
O997        O  0.01387128  0.20544255  0.54064527    -0.90100
O998        O  0.95281811  0.20609907  0.45372677    -0.76000
O999        O  0.00021246  0.21650915  0.42299565    -0.85500
O1000       O  0.97785191  0.18192669  0.47946466    -0.85200
O1001       O  0.04471069  0.21811339  0.44154346    -0.72000
O1002       O  0.02322626  0.18546707  0.49153560    -0.84100
Zr1003     Zr  0.00061418  0.14926412  0.39673405     2.26400
Zr1004     Zr  0.02855832  0.21553182  0.38528583     2.06300
Zr1005     Zr  0.98543491  0.14986849  0.49073731     2.10000
Zr1006     Zr  0.96314606  0.18103955  0.42310443     1.78800
O1007       O  0.99040480  0.12395983  0.53406372    -0.92900
O1008       O  0.95802560  0.20485559  0.37636010    -0.40700
O1009       O  0.97061901  0.14858475  0.43398859    -0.77400
O1010       O  0.99108339  0.18028066  0.38418526    -0.96100
O1011       O  0.03772366  0.18458761  0.39656641    -0.89400
O1012       O  0.01450504  0.15054913  0.45393801    -0.92200
C1013       C  0.96272640  0.22047627  0.47719325     1.01600
C1014       C  0.00662468  0.18578479  0.55880278     1.14500
C1015       C  0.04940238  0.26775565  0.42204965     1.05300
O1016       O  0.01721433  0.23758330  0.34353480    -0.94400
O1017       O  0.02492829  0.20147003  0.32891927    -0.90100
O1018       O  0.01118803  0.16218656  0.33523198    -0.83200
C1019       C  0.01877742  0.18179622  0.31653358     1.11900
O1020       O  0.08930340  0.21724060  0.47317085    -0.96300
Zr1021     Zr  0.05198107  0.18581102  0.45321152     1.88900
O1022       O  0.02715766  0.13172851  0.40316840    -0.73000
O1023       O  0.06939083  0.23313271  0.36387353    -0.52200
O1024       O  0.08299707  0.20029056  0.40859865    -0.96900
O1025       O  0.06573347  0.17769101  0.50840296    -0.54100
O1026       O  0.05522659  0.15167333  0.44222562    -0.73500
C1027       C  0.04442485  0.13450427  0.42313030     0.98800
O1028       O  0.97756830  0.12512256  0.35076206    -0.62300
O1029       O  0.94552723  0.13470565  0.51468351    -0.57100
O1030       O  0.97255507  0.10927178  0.41777852    -0.93800
O1031       O  0.96654387  0.10870676  0.47489441    -0.92200
O1032       O  0.92431401  0.15665725  0.45108860    -0.92600
O1033       O  0.93227128  0.15483453  0.38592991    -0.91400
C1034       C  0.96348228  0.09825836  0.44697961     1.17700
H1035       H  0.96700818  0.18135776  0.49667391     0.33600
H1036       H  0.98456566  0.17902361  0.36148998     0.44500
H1037       H  0.01512080  0.13667160  0.46194836     0.38000
H1038       H  0.05963095  0.23251866  0.44278178     0.34500
H1039       H  0.94135020  0.20129940  0.37892617     0.26300
H1040       H  0.07206630  0.24728396  0.34926685     0.32200
H1041       H  0.08125253  0.18618913  0.39828897     0.38100
H1042       H  0.92378764  0.14158328  0.45821142     0.32600
H1043       H  0.94226943  0.12008177  0.52848845     0.31500
H1044       H  0.00702806  0.12753565  0.53084911     0.33100
H1045       H  0.07455971  0.16949575  0.50309945     0.32100
H1046       H  0.94040688  0.14926360  0.37103411     0.36100
H1047       H  0.97912517  0.11079021  0.35322365     0.28800
H1048       H  0.03230528  0.25794269  0.51837698     0.33100
H1049       H  0.10128053  0.21230886  0.46958299     0.35900
H1050       H  0.94722989  0.14566687  0.53204052     0.28500
H1051       H  0.96074887  0.11971041  0.35681147     0.41400
H1052       H  0.00139953  0.22587489  0.33566540     0.31500
H1053       H  0.96761113  0.22126703  0.38274436     0.39100
H1054       H  0.05115293  0.16551457  0.52090579     0.30900
H1055       H  0.07932804  0.23941806  0.38415976     0.31000
H1056       H  0.05432990  0.25438293  0.51285109     0.31300
Zr1057     Zr  0.85958560  0.86780225  0.97973857     2.17500
O1058       O  0.86812829  0.89858566  0.01827113    -0.51100
O1059       O  0.90228125  0.87975690  0.98024014    -0.74300
O1060       O  0.85554069  0.85474456  0.04088082    -0.81100
O1061       O  0.86155258  0.90911513  0.90279436    -0.82800
O1062       O  0.82817679  0.81592653  0.04744074    -0.78500
O1063       O  0.87209484  0.90806320  0.95857036    -0.90100
O1064       O  0.90698163  0.85468217  0.94894998    -0.76000
O1065       O  0.85864910  0.83102004  0.97954394    -0.85500
O1066       O  0.87189960  0.86626388  0.92340343    -0.85200
O1067       O  0.81833242  0.83898300  0.99169275    -0.72000
O1068       O  0.83108342  0.87051890  0.94176835    -0.84100
Zr1069     Zr  0.80220222  0.80180605  0.89622596     2.26400
Zr1070     Zr  0.81783565  0.80224888  0.99063081     2.06300
Zr1071     Zr  0.84388585  0.86904910  0.88561300     2.10000
Zr1072     Zr  0.87014164  0.82915933  0.92273967     1.78800
O1073       O  0.82263839  0.88648080  0.85468582    -0.92900
O1074       O  0.87988996  0.80067364  0.95113678    -0.40700
O1075       O  0.84262090  0.83202547  0.88423645    -0.77400
O1076       O  0.83019987  0.79890778  0.93484209    -0.96100
O1077       O  0.78910977  0.80353201  0.95205328    -0.89400
O1078       O  0.80342668  0.83897401  0.89569196    -0.92200
C1079       C  0.91535494  0.87246188  0.96704224     1.01600
C1080       C  0.87076613  0.91889405  0.93057946     1.14500
C1081       C  0.84261167  0.83555502  0.05941041     1.05300
O1082       O  0.83931789  0.78312962  0.01557548    -0.94400
O1083       O  0.79544207  0.76198160  0.97771811    -0.90100
O1084       O  0.78627931  0.76056764  0.92121354    -0.83200
C1085       C  0.78632075  0.75069938  0.95115912     1.11900
O1086       O  0.78439980  0.86285185  0.99348442    -0.96300
Zr1087     Zr  0.79034979  0.84043874  0.95147288     1.88900
O1088       O  0.76263556  0.79644367  0.88505975    -0.73000
O1089       O  0.78344388  0.77899913  0.02893162    -0.52200
O1090       O  0.75866267  0.81473753  0.99270348    -0.96900
O1091       O  0.78407277  0.87246769  0.92816275    -0.54100
O1092       O  0.75567731  0.82065928  0.91522220    -0.73500
C1093       C  0.74958591  0.80520741  0.89311371     0.98800
O1094       O  0.79230896  0.77362380  0.85286472    -0.62300
O1095       O  0.88052849  0.89358359  0.85217634    -0.57100
O1096       O  0.81410832  0.81444501  0.83575747    -0.93800
O1097       O  0.83768439  0.85426281  0.82932623    -0.92200
O1098       O  0.90021842  0.84814423  0.87683929    -0.92600
O1099       O  0.87049392  0.80334265  0.88130725    -0.91400
C1100       C  0.82673330  0.83391473  0.81748626     1.17700
H1101       H  0.88768427  0.87911433  0.91783756     0.33600
H1102       H  0.83006700  0.78419034  0.93358211     0.44500
H1103       H  0.79389344  0.84084047  0.87773729     0.38000
H1104       H  0.81349992  0.84075289  0.01403004     0.34500
H1105       H  0.89634800  0.80596956  0.94321382     0.26300
H1106       H  0.78912827  0.77191816  0.04744952     0.32200
H1107       H  0.76647233  0.81702954  0.01522819     0.38100
H1108       H  0.91004314  0.86471013  0.88240815     0.32600
H1109       H  0.87749972  0.90509210  0.83830820     0.31500
H1110       H  0.83391026  0.89727268  0.83630610     0.33100
H1111       H  0.76681645  0.86649988  0.93116192     0.32100
H1112       H  0.85696397  0.80035576  0.86622013     0.36100
H1113       H  0.79976327  0.76396601  0.86005954     0.28800
H1114       H  0.88094538  0.89936357  0.03333067     0.33100
H1115       H  0.80064658  0.87418086  0.00045413     0.35900
H1116       H  0.89269653  0.90311849  0.86860828     0.28500
H1117       H  0.77497054  0.76284242  0.85552441     0.41400
H1118       H  0.83904886  0.77287135  0.99801303     0.31500
H1119       H  0.88142464  0.80396861  0.97565782     0.39100
H1120       H  0.78659568  0.87328350  0.90305937     0.30900
H1121       H  0.78086214  0.79062538  0.04016894     0.31000
H1122       H  0.85392218  0.89256261  0.03352753     0.31300
Zr1123     Zr  0.85539986  0.86705589  0.48308391     2.17500
O1124       O  0.85561456  0.89470497  0.52181866    -0.51100
O1125       O  0.89809327  0.88051924  0.48820501    -0.74300
O1126       O  0.85055756  0.85258850  0.54353912    -0.81100
O1127       O  0.86558091  0.91053471  0.40620155    -0.82800
O1128       O  0.82399480  0.81350647  0.54813755    -0.78500
O1129       O  0.87137647  0.90814702  0.46354175    -0.90100
O1130       O  0.90650670  0.85718991  0.45766299    -0.76000
O1131       O  0.85556019  0.83076423  0.48383356    -0.85500
O1132       O  0.87177523  0.86708523  0.42905434    -0.85200
O1133       O  0.81413906  0.83738389  0.49027174    -0.72000
O1134       O  0.82921888  0.87030149  0.44105685    -0.84100
Zr1135     Zr  0.80544669  0.80260680  0.39398568     2.26400
Zr1136     Zr  0.81463324  0.80123068  0.49053736     2.06300
Zr1137     Zr  0.84612867  0.87033213  0.38732138     2.10000
Zr1138     Zr  0.87116762  0.83044201  0.42912368     1.78800
O1139       O  0.82681542  0.89010836  0.35732620    -0.92900
O1140       O  0.88331135  0.80457783  0.46037233    -0.40700
O1141       O  0.84598390  0.83355768  0.38625131    -0.77400
O1142       O  0.83099662  0.79956325  0.43696335    -0.96100
O1143       O  0.78845053  0.80278528  0.44757297    -0.89400
O1144       O  0.80562833  0.83932960  0.39269075    -0.92200
C1145       C  0.91254176  0.87436910  0.47642934     1.01600
C1146       C  0.87318429  0.91993747  0.43487404     1.14500
C1147       C  0.83775534  0.83293306  0.56116639     1.05300
O1148       O  0.83180198  0.77916204  0.52004995    -0.94400
O1149       O  0.79247361  0.76125648  0.47567212    -0.90100
O1150       O  0.78682997  0.76088257  0.41791725    -0.83200
C1151       C  0.78480981  0.75054318  0.44826666     1.11900
O1152       O  0.78115776  0.86006911  0.48901426    -0.96300
Zr1153     Zr  0.78851897  0.83915193  0.44608148     1.88900
O1154       O  0.76644118  0.79598490  0.37725783    -0.73000
O1155       O  0.77860716  0.78301379  0.52642958    -0.52200
O1156       O  0.75363478  0.81416377  0.48274161    -0.96900
O1157       O  0.78095789  0.86944523  0.41867596    -0.54100
O1158       O  0.75628889  0.81826437  0.40644445    -0.73500
C1159       C  0.75212620  0.80346241  0.38379774     0.98800
O1160       O  0.80146538  0.77166401  0.35888999    -0.62300
O1161       O  0.88324978  0.89287194  0.35401475    -0.57100
O1162       O  0.81802677  0.81755433  0.33372900    -0.93800
O1163       O  0.84048140  0.85744384  0.32986562    -0.92200
O1164       O  0.89918645  0.84932149  0.38077959    -0.92600
O1165       O  0.87639709  0.80409735  0.39392501    -0.91400
C1166       C  0.83028993  0.83763276  0.31646809     1.17700
H1167       H  0.88756128  0.88033595  0.42520803     0.33600
H1168       H  0.83094880  0.78483986  0.43627899     0.44500
H1169       H  0.79697936  0.84124057  0.37344650     0.38000
H1170       H  0.80805318  0.83845435  0.51209216     0.34500
H1171       H  0.88621860  0.80974503  0.48400788     0.26300
H1172       H  0.76544644  0.77501311  0.51042479     0.32200
H1173       H  0.74530391  0.79907405  0.47180993     0.38100
H1174       H  0.91283028  0.86328125  0.38974282     0.32600
H1175       H  0.88757889  0.90960900  0.35414475     0.31500
H1176       H  0.83674314  0.89800633  0.33630590     0.33100
H1177       H  0.77723434  0.86534142  0.39459380     0.32100
H1178       H  0.86087921  0.79512407  0.38286937     0.36100
H1179       H  0.79242267  0.77236553  0.33854143     0.28800
H1180       H  0.86800160  0.89710737  0.53884364     0.33100
H1181       H  0.79719213  0.87182262  0.49615258     0.35900
H1182       H  0.89562837  0.89149385  0.36756049     0.28500
H1183       H  0.81771318  0.77701481  0.34994421     0.41400
H1184       H  0.83313500  0.76966341  0.50257270     0.31500
H1185       H  0.86877896  0.78895599  0.46262285     0.39100
H1186       H  0.79668172  0.88391507  0.41711052     0.30900
H1187       H  0.77922496  0.77005841  0.54035836     0.31000
H1188       H  0.84033219  0.88609622  0.53490209     0.31300
C1189       C  0.85189918  0.84472084  0.72664144    -0.11600
C1190       C  0.83106895  0.83276244  0.70830585     0.10900
C1191       C  0.80895763  0.81924775  0.72602727    -0.03400
C1192       C  0.80826124  0.81979463  0.76192009    -0.06200
C1193       C  0.82900922  0.83292011  0.78017611    -0.17000
C1194       C  0.85135761  0.84481419  0.76249027     0.02000
C1195       C  0.83339492  0.83361714  0.67059956     0.11900
C1196       C  0.78639071  0.80406639  0.70714416     0.62500
H1197       H  0.79146668  0.81014699  0.77600093     0.11900
C1198       C  0.87465502  0.85752901  0.78097980     0.54700
H1199       H  0.86867113  0.85422527  0.71245258     0.07700
C1200       C  0.83525960  0.85267871  0.64864817    -0.06100
C1201       C  0.83756165  0.85207959  0.61308072    -0.06800
C1202       C  0.83776437  0.83303550  0.59908095    -0.16400
C1203       C  0.83679206  0.81440510  0.62141540    -0.02000
C1204       C  0.83486719  0.81524606  0.65695959    -0.09500
C1205       C  0.83423462  0.87322249  0.66257372     0.64700
H1206       H  0.83834132  0.86616128  0.59576098     0.10200
C1207       C  0.83774187  0.79365421  0.60829244     0.63100
H1208       H  0.83397571  0.80122185  0.67457082     0.07600
F1209       F  0.89387511  0.86214384  0.76028174    -0.19900
F1210       F  0.87470990  0.84402072  0.80995580    -0.16100
F1211       F  0.87769345  0.87872223  0.79018009    -0.19600
F1212       F  0.78828066  0.78631925  0.69300552    -0.23000
F1213       F  0.78284706  0.81749797  0.68118429    -0.24500
F1214       F  0.76658174  0.79375275  0.72887815    -0.18500
F1215       F  0.84215238  0.78089057  0.63444597    -0.21000
F1216       F  0.85574120  0.80144170  0.58376611    -0.22100
F1217       F  0.81619381  0.77872715  0.59420760    -0.19300
F1218       F  0.83682788  0.89002099  0.63665859    -0.19400
F1219       F  0.85224638  0.88402522  0.68556523    -0.23200
F1220       F  0.81259083  0.86525850  0.67911209    -0.24800
C1221       C  0.84293958  0.82116288  0.15561559    -0.11600
C1222       C  0.83669746  0.83688266  0.16839456     0.10900
C1223       C  0.83415455  0.85327188  0.14542217    -0.03400
C1224       C  0.83713803  0.85271897  0.10998399    -0.06200
C1225       C  0.84264859  0.83651781  0.09708136    -0.17000
C1226       C  0.84607362  0.82071148  0.12013431     0.02000
C1227       C  0.83445834  0.83671101  0.20620563     0.11900
C1228       C  0.82815975  0.87113851  0.15819355     0.62500
H1229       H  0.83459464  0.86461380  0.09186770     0.11900
C1230       C  0.85416520  0.80434084  0.10752123     0.54700
H1231       H  0.84549881  0.80933216  0.17383687     0.07700
C1232       C  0.81329681  0.82097326  0.22490868    -0.06100
C1233       C  0.81279960  0.82182808  0.26081727    -0.06800
C1234       C  0.83261067  0.83800386  0.27841286    -0.16400
C1235       C  0.85387050  0.85385984  0.25929010    -0.02000
C1236       C  0.85438236  0.85256882  0.22354006    -0.09500
C1237       C  0.79157091  0.80288670  0.20719532     0.64700
H1238       H  0.79677502  0.80980742  0.27548956     0.10200
C1239       C  0.87603001  0.87223906  0.27590594     0.63100
H1240       H  0.87034199  0.86429874  0.20846504     0.07600
F1241       F  0.83728735  0.78847761  0.08677304    -0.19900
F1242       F  0.85778005  0.79152151  0.13443890    -0.16100
F1243       F  0.87536052  0.81745348  0.08911442    -0.19600
F1244       F  0.84595634  0.88589049  0.17901944    -0.23000
F1245       F  0.80694630  0.85977601  0.17675138    -0.24500
F1246       F  0.82586791  0.88490591  0.13133746    -0.18500
F1247       F  0.88215776  0.86187179  0.30344111    -0.21000
F1248       F  0.87180316  0.88946452  0.28679141    -0.22100
F1249       F  0.89533942  0.88317384  0.25321403    -0.19300
F1250       F  0.77194543  0.79162467  0.22926457    -0.19400
F1251       F  0.79627518  0.78616046  0.19554911    -0.23200
F1252       F  0.78580690  0.81346530  0.17957517    -0.24800
C1253       C  0.91818359  0.03235716  0.46888771    -0.11600
C1254       C  0.92357904  0.02189932  0.44290230     0.10900
C1255       C  0.94135264  0.03652974  0.41793279    -0.03400
C1256       C  0.95423061  0.06098470  0.42122034    -0.06200
C1257       C  0.94922744  0.07174321  0.44745969    -0.17000
C1258       C  0.93033340  0.05705252  0.47131432     0.02000
C1259       C  0.91020635  0.99561212  0.44207596     0.11900
C1260       C  0.94616183  0.02643363  0.38718616     0.62500
H1261       H  0.96827307  0.07201158  0.40262824     0.11900
C1262       C  0.92224680  0.06719787  0.49839535     0.54700
H1263       H  0.90412769  0.02089239  0.48723686     0.07700
C1264       C  0.91741373  0.98098028  0.46112311    -0.06100
C1265       C  0.90517102  0.95661706  0.45711900    -0.06800
C1266       C  0.88548332  0.94614757  0.43567999    -0.16400
C1267       C  0.87745335  0.96063958  0.41802975    -0.02000
C1268       C  0.89013317  0.98519332  0.42137486    -0.09500
C1269       C  0.93758124  0.99093413  0.48629983     0.64700
H1270       H  0.91087114  0.94539274  0.47107195     0.10200
C1271       C  0.85540191  0.95032704  0.39630553     0.63100
H1272       H  0.88459330  0.99657627  0.40751742     0.07600
F1273       F  0.90174849  0.05014646  0.51563562    -0.19900
F1274       F  0.91746852  0.08410943  0.48298980    -0.16100
F1275       F  0.93975314  0.07710007  0.52239232    -0.19600
F1276       F  0.92615144  0.01676483  0.36725676    -0.23000
F1277       F  0.95173143  0.00917926  0.39800327    -0.24500
F1278       F  0.96485106  0.04349026  0.36668821    -0.18500
F1279       F  0.84831916  0.96669819  0.38677404    -0.21000
F1280       F  0.83673261  0.93153794  0.41458841    -0.22100
F1281       F  0.86005833  0.94279161  0.36675165    -0.19300
F1282       F  0.94209359  0.97376628  0.50150214    -0.19400
F1283       F  0.93164361  0.00059330  0.51208315    -0.23200
F1284       F  0.95819688  0.00813663  0.46964985    -0.24800
C1285       C  0.99628612  0.15565603  0.72334822    -0.11600
C1286       C  0.01389336  0.17660183  0.70640725     0.10900
C1287       C  0.03037249  0.19484063  0.72579466    -0.03400
C1288       C  0.02931648  0.19105941  0.76176505    -0.06200
C1289       C  0.01137143  0.17033914  0.77933507    -0.17000
C1290       C  0.99434613  0.15227247  0.75957343     0.02000
C1291       C  0.01333652  0.17976462  0.66836943     0.11900
C1292       C  0.04807815  0.21875497  0.70868205     0.62500
H1293       H  0.04215394  0.20496319  0.77659570     0.11900
C1294       C  0.97374723  0.12992145  0.77604711     0.54700
H1295       H  0.98360580  0.14218704  0.70773208     0.07700
C1296       C  0.02535172  0.17268576  0.64624482    -0.06100
C1297       C  0.02376162  0.17627808  0.61047212    -0.06800
C1298       C  0.01004684  0.18596731  0.59642963    -0.16400
C1299       C  0.99775357  0.19268170  0.61865627    -0.02000
C1300       C  0.99981382  0.18962366  0.65440537    -0.09500
C1301       C  0.03885159  0.16045800  0.66030229     0.64700
H1302       H  0.03263239  0.17082720  0.59301365     0.10200
C1303       C  0.98160291  0.20188659  0.60479922     0.63100
H1304       H  0.99048968  0.19450619  0.67195736     0.07600
F1305       F  0.98240316  0.11677144  0.79381365    -0.19900
F1306       F  0.95813444  0.11611601  0.75193191    -0.16100
F1307       F  0.96104147  0.13546710  0.79809340    -0.19600
F1308       F  0.03595058  0.22936320  0.69342544    -0.23000
F1309       F  0.06150686  0.21637063  0.68383280    -0.24500
F1310       F  0.06352784  0.23354152  0.73205674    -0.18500
F1311       F  0.97062225  0.20641642  0.63099762    -0.21000
F1312       F  0.96410159  0.18537536  0.58536846    -0.22100
F1313       F  0.99465126  0.22258098  0.58454120    -0.19300
F1314       F  0.04917475  0.15503531  0.63426241    -0.19400
F1315       F  0.02340448  0.13973438  0.67892994    -0.23200
F1316       F  0.05670359  0.17465550  0.68152036    -0.24800
C1317       C  0.02919940  0.20208646  0.22047062    -0.11600
C1318       C  0.01290950  0.18154369  0.20579062     0.10900
C1319       C  0.00110476  0.16022869  0.22676986    -0.03400
C1320       C  0.00383083  0.16084748  0.26273519    -0.06200
C1321       C  0.01915908  0.18182374  0.27803079    -0.17000
C1322       C  0.03325677  0.20256407  0.25599755     0.02000
C1323       C  0.01010480  0.18285600  0.16788807     0.11900
C1324       C  0.98623354  0.13695179  0.21102992     0.62500
H1325       H  0.99374805  0.14488605  0.27915361     0.11900
C1326       C  0.05324243  0.22507579  0.26893908     0.54700
H1327       H  0.03887729  0.21792430  0.20358000     0.07700
C1328       C  0.99429242  0.18974479  0.15216489    -0.06100
C1329       C  0.99257317  0.19037527  0.11607531    -0.06800
C1330       C  0.00677708  0.18522304  0.09572870    -0.16400
C1331       C  0.02393255  0.18031237  0.11123309    -0.02000
C1332       C  0.02509954  0.17888726  0.14725644    -0.09500
C1333       C  0.97949313  0.19654235  0.17336380     0.64700
H1334       H  0.97996324  0.19462353  0.10346168     0.10200
C1335       C  0.04131413  0.17727945  0.08949621     0.63100
H1336       H  0.03784720  0.17477350  0.15969759     0.07600
F1337       F  0.04402064  0.23717324  0.28458248    -0.19900
F1338       F  0.06832934  0.23987736  0.24236021    -0.16100
F1339       F  0.06677415  0.21980446  0.29191061    -0.19600
F1340       F  0.00050213  0.13294372  0.18970615    -0.23000
F1341       F  0.96822419  0.13743827  0.19203328    -0.24500
F1342       F  0.97604958  0.11829297  0.23583988    -0.18500
F1343       F  0.05752775  0.17401235  0.10937900    -0.21000
F1344       F  0.05379407  0.19716507  0.06733672    -0.22100
F1345       F  0.02916662  0.15795853  0.07057290    -0.19300
F1346       F  0.96562502  0.20298604  0.15292416    -0.19400
F1347       F  0.99424763  0.21544935  0.19184212    -0.23200
F1348       F  0.96461182  0.17780510  0.19588399    -0.24800
C1349       C  0.92230607  0.02621735  0.97660096    -0.11600
C1350       C  0.91189878  0.01824816  0.94504095     0.10900
C1351       C  0.91201324  0.03442329  0.91892872    -0.03400
C1352       C  0.92481597  0.05851230  0.92408174    -0.06200
C1353       C  0.93702476  0.06693229  0.95467647    -0.17000
C1354       C  0.93474263  0.05037642  0.98218818     0.02000
C1355       C  0.90153223  0.99288076  0.93977642     0.11900
C1356       C  0.89857881  0.02624372  0.88588682     0.62500
H1357       H  0.92565798  0.07110710  0.90375924     0.11900
C1358       C  0.94564979  0.05783803  0.01692139     0.54700
H1359       H  0.92108232  0.01323870  0.99657335     0.07700
C1360       C  0.91582265  0.98340646  0.92963517    -0.06100
C1361       C  0.90488895  0.95916824  0.92530840    -0.06800
C1362       C  0.88041546  0.94442795  0.93106242    -0.16400
C1363       C  0.86612916  0.95388904  0.94091531    -0.02000
C1364       C  0.87701785  0.97810903  0.94529625    -0.09500
C1365       C  0.94255262  0.99872390  0.92434732     0.64700
H1366       H  0.91545370  0.95136754  0.91834577     0.10200
C1367       C  0.83951786  0.93834255  0.94666530     0.63100
H1368       H  0.86651186  0.98574945  0.95317608     0.07600
F1369       F  0.93579474  0.06970598  0.03166777    -0.19900
F1370       F  0.94155601  0.03872925  0.03932337    -0.16100
F1371       F  0.96993375  0.07227422  0.01313095    -0.19600
F1372       F  0.87449744  0.01297635  0.89343155    -0.23000
F1373       F  0.90586557  0.01269284  0.86981320    -0.24500
F1374       F  0.90218676  0.04496863  0.86299819    -0.18500
F1375       F  0.83490539  0.92034148  0.97153035    -0.21000
F1376       F  0.82926827  0.92879550  0.91628163    -0.22100
F1377       F  0.82898161  0.95080692  0.95738128    -0.19300
F1378       F  0.95282013  0.98624065  0.91273071    -0.19400
F1379       F  0.95282264  0.00744391  0.95510830    -0.23200
F1380       F  0.94764835  0.01732295  0.90038495    -0.24800
C1381       C  0.97744876  0.89240802  0.47832955    -0.11600
C1382       C  0.98776307  0.91621563  0.46652446     0.10900
C1383       C  0.97343424  0.92706263  0.46350716    -0.03400
C1384       C  0.94884710  0.91322884  0.47094888    -0.06200
C1385       C  0.93840626  0.88912810  0.48125636    -0.17000
C1386       C  0.95314771  0.87890681  0.48705734     0.02000
C1387       C  0.01385626  0.92941777  0.45921558     0.11900
C1388       C  0.98389255  0.95286427  0.45125320     0.62500
H1389       H  0.93734007  0.92075861  0.46629767     0.11900
C1390       C  0.94361912  0.85368796  0.50167645     0.54700
H1391       H  0.98862560  0.88436624  0.48107096     0.07700
C1392       C  0.03019400  0.93687865  0.48611170    -0.06100
C1393       C  0.05454563  0.94757695  0.47801171    -0.06800
C1394       C  0.06354418  0.95223287  0.44382106    -0.16400
C1395       C  0.04694831  0.94579501  0.41666454    -0.02000
C1396       C  0.02233430  0.93384251  0.42505997    -0.09500
C1397       C  0.02194809  0.93346735  0.52343592     0.64700
H1398       H  0.06676865  0.95236982  0.49902083     0.10200
C1399       C  0.05479223  0.95201334  0.37911591     0.63100
H1400       H  0.00937503  0.92794014  0.40493044     0.07600
F1401       F  0.92267231  0.84557767  0.52035442    -0.19900
F1402       F  0.95991989  0.85213225  0.52363235    -0.16100
F1403       F  0.93964054  0.83939808  0.47519179    -0.19600
F1404       F  0.99218265  0.95648025  0.41772721    -0.23000
F1405       F  0.00250372  0.96666023  0.47176682    -0.24500
F1406       F  0.96719534  0.96020871  0.45236284    -0.18500
F1407       F  0.06654620  0.94030428  0.37024213    -0.21000
F1408       F  0.06962011  0.97604033  0.37359667    -0.22100
F1409       F  0.03573656  0.94581396  0.35750932    -0.19300
F1410       F  0.04077811  0.94504170  0.54500013    -0.19400
F1411       F  0.01038170  0.90981419  0.53420478    -0.23200
F1412       F  0.00657941  0.94219794  0.52694111    -0.24800
C1413       C  0.05945639  0.08981737  0.46618507    -0.11600
C1414       C  0.07410341  0.08891875  0.44122510     0.10900
C1415       C  0.07508599  0.09913362  0.40749396    -0.03400
C1416       C  0.06430945  0.11330233  0.40144112    -0.06200
C1417       C  0.05145222  0.11603718  0.42759926    -0.17000
C1418       C  0.04768832  0.10283693  0.45976969     0.02000
C1419       C  0.08831355  0.07731581  0.45150605     0.11900
C1420       C  0.08719927  0.09482483  0.37814951     0.62500
H1421       H  0.06655154  0.12291755  0.37670775     0.11900
C1422       C  0.03134696  0.10250130  0.48744606     0.54700
H1423       H  0.05796091  0.08081937  0.49124493     0.07700
C1424       C  0.11205549  0.09036034  0.46221705    -0.06100
C1425       C  0.12533031  0.07873000  0.46822413    -0.06800
C1426       C  0.11520596  0.05437731  0.46565293    -0.16400
C1427       C  0.09055915  0.04095299  0.45874216    -0.02000
C1428       C  0.07753629  0.05278815  0.45174222    -0.09500
C1429       C  0.12301171  0.11629959  0.46809009     0.64700
H1430       H  0.14398808  0.08869882  0.47420707     0.10200
C1431       C  0.07837567  0.01456719  0.45616330     0.63100
H1432       H  0.05900025  0.04311102  0.44500438     0.07600
F1433       F  0.02732971  0.08575175  0.51418407    -0.19900
F1434       F  0.00959535  0.09714184  0.47358738    -0.16100
F1435       F  0.04133542  0.12416239  0.50087837    -0.19600
F1436       F  0.07940646  0.07102294  0.37794161    -0.23000
F1437       F  0.11155887  0.10668693  0.38176966    -0.24500
F1438       F  0.08200072  0.10224959  0.34667051    -0.18500
F1439       F  0.05434067  0.00504161  0.44996286    -0.21000
F1440       F  0.08061591  0.00363255  0.48657358    -0.22100
F1441       F  0.08862626  0.00981454  0.42939911    -0.19300
F1442       F  0.14617557  0.12561316  0.47905857    -0.19400
F1443       F  0.10985664  0.11905902  0.49303692    -0.23200
F1444       F  0.12316052  0.12904806  0.43817050    -0.24800
C1445       C  0.16687860  0.01834443  0.72487872    -0.11600
C1446       C  0.17433173  0.00545320  0.70662048     0.10900
C1447       C  0.18546847  0.99382254  0.72407969    -0.03400
C1448       C  0.18788660  0.99477237  0.75993264    -0.06200
C1449       C  0.17982242  0.00715031  0.77835707    -0.17000
C1450       C  0.16947832  0.01950296  0.76060522     0.02000
C1451       C  0.17298638  0.00714580  0.66865856     0.11900
C1452       C  0.19491745  0.98067791  0.70489924     0.62500
H1453       H  0.19572297  0.98548319  0.77402955     0.11900
C1454       C  0.16204525  0.03457909  0.77895932     0.54700
H1455       H  0.15923373  0.02777064  0.71065577     0.07700
C1456       C  0.15247550  0.99223942  0.65065767    -0.06100
C1457       C  0.15336386  0.99483956  0.61439811    -0.06800
C1458       C  0.17367290  0.01252785  0.59602158    -0.16400
C1459       C  0.19315863  0.02891501  0.61473542    -0.02000
C1460       C  0.19260488  0.02548890  0.65068046    -0.09500
C1461       C  0.12973746  0.97414287  0.66972060     0.64700
H1462       H  0.13824053  0.98284707  0.60016332     0.10200
C1463       C  0.21441470  0.05034774  0.59753678     0.63100
H1464       H  0.20769588  0.03721713  0.66527707     0.07600
F1465       F  0.14340337  0.02066123  0.80166070    -0.19900
F1466       F  0.15468324  0.04686461  0.75619702    -0.16100
F1467       F  0.18105370  0.05073859  0.79674422    -0.19600
F1468       F  0.21263629  0.99614844  0.68176335    -0.23000
F1469       F  0.17684227  0.96339797  0.68723784    -0.24500
F1470       F  0.20434823  0.96998478  0.72699136    -0.18500
F1471       F  0.22700915  0.06702041  0.62068394    -0.21000
F1472       F  0.20697959  0.06090173  0.57197205    -0.22100
F1473       F  0.22957887  0.04373280  0.58381127    -0.19300
F1474       F  0.11210485  0.96089045  0.64739305    -0.19400
F1475       F  0.12137961  0.98547287  0.68912241    -0.23200
F1476       F  0.13395162  0.95895220  0.69132362    -0.24800
C1477       C  0.18844177  0.00679700  0.15225551    -0.11600
C1478       C  0.17533762  0.01570834  0.16707291     0.10900
C1479       C  0.16394126  0.02547532  0.14584546    -0.03400
C1480       C  0.16456381  0.02422607  0.11001963    -0.06200
C1481       C  0.17736163  0.01484221  0.09511336    -0.17000
C1482       C  0.18980056  0.00618977  0.11661252     0.02000
C1483       C  0.17416098  0.01417388  0.20510524     0.11900
C1484       C  0.15205161  0.03790208  0.16081893     0.62500
H1485       H  0.15570662  0.03128415  0.09323814     0.11900
C1486       C  0.20453419  0.99630517  0.10252359     0.54700
H1487       H  0.19763708  0.00019830  0.16919943     0.07700
C1488       C  0.15974044  0.99249849  0.22424268    -0.06100
C1489       C  0.16217304  0.99127070  0.26000592    -0.06800
C1490       C  0.17795704  0.01100978  0.27723739    -0.16400
C1491       C  0.19148105  0.03301045  0.25819895    -0.02000
C1492       C  0.18980433  0.03400913  0.22214239    -0.09500
C1493       C  0.14150941  0.97086550  0.20709009     0.64700
H1494       H  0.15159693  0.97472056  0.27500275     0.10200
C1495       C  0.20669554  0.05547065  0.27569473     0.63100
H1496       H  0.20087024  0.05028205  0.20684226     0.07600
F1497       F  0.21155499  0.98541028  0.12823278    -0.19900
F1498       F  0.22485421  0.01443251  0.08649363    -0.16100
F1499       F  0.19152800  0.97979120  0.07944803    -0.19600
F1500       F  0.16904717  0.05792047  0.17519236    -0.23000
F1501       F  0.13545413  0.02328346  0.18588943    -0.24500
F1502       F  0.14059294  0.04463188  0.13595562    -0.18500
F1503       F  0.22530130  0.05442021  0.29196419    -0.21000
F1504       F  0.19300136  0.05838853  0.29956501    -0.22100
F1505       F  0.21621794  0.07509099  0.25245441    -0.19300
F1506       F  0.12876921  0.95195124  0.23078714    -0.19400
F1507       F  0.15255333  0.96405744  0.18414917    -0.23200
F1508       F  0.12557115  0.97591310  0.18968048    -0.24800
C1509       C  0.98106469  0.91944139  0.97865510    -0.11600
C1510       C  0.99250198  0.90850178  0.96430256     0.10900
C1511       C  0.97889563  0.88540494  0.95415720    -0.03400
C1512       C  0.95410528  0.87410647  0.95811532    -0.06200
C1513       C  0.94202772  0.88525148  0.97042992    -0.17000
C1514       C  0.95595128  0.90840587  0.98157461     0.02000
C1515       C  0.01877358  0.92151182  0.95917525     0.11900
C1516       C  0.99052479  0.87281535  0.93849003     0.62500
H1517       H  0.94392282  0.85632598  0.95048747     0.11900
C1518       C  0.94479672  0.92185877  0.99557362     0.54700
H1519       H  0.99206897  0.93707320  0.98657779     0.07700
C1520       C  0.02977285  0.93624618  0.92900082    -0.06100
C1521       C  0.05443588  0.94592120  0.92396299    -0.06800
C1522       C  0.06828335  0.94120860  0.94788895    -0.16400
C1523       C  0.05695590  0.92535137  0.97718328    -0.02000
C1524       C  0.03251735  0.91656381  0.98292719    -0.09500
C1525       C  0.01559801  0.94209779  0.90255587     0.64700
H1526       H  0.06331568  0.95818062  0.90192664     0.10200
C1527       C  0.06918665  0.91591612  0.00201640     0.63100
H1528       H  0.02376527  0.90466682  0.00539809     0.07600
F1529       F  0.93122132  0.92545162  0.97062179    -0.19900
F1530       F  0.96177080  0.94369949  0.00536995    -0.16100
F1531       F  0.93069533  0.90933560  0.02419378    -0.19600
F1532       F  0.00456473  0.86917752  0.96248898    -0.23000
F1533       F  0.00451175  0.88611406  0.91019021    -0.24500
F1534       F  0.97389240  0.85115852  0.92776239    -0.18500
F1535       F  0.05658582  0.89156873  0.00410713    -0.21000
F1536       F  0.06940167  0.92335871  0.03431387    -0.22100
F1537       F  0.09222196  0.92276993  0.99197941    -0.19300
F1538       F  0.02951296  0.95552174  0.87419506    -0.19400
F1539       F  0.00648172  0.95463881  0.91718208    -0.23200
F1540       F  0.99705003  0.92173767  0.89116310    -0.24800
C1541       C  0.04859256  0.07606762  0.95159615    -0.11600
C1542       C  0.06827551  0.08116135  0.93087174     0.10900
C1543       C  0.07454327  0.09796021  0.90222537    -0.03400
C1544       C  0.06308378  0.11159103  0.89839973    -0.06200
C1545       C  0.04456175  0.10769843  0.92077627    -0.17000
C1546       C  0.03632637  0.08882428  0.94665242     0.02000
C1547       C  0.08270523  0.06959671  0.94102644     0.11900
C1548       C  0.09260309  0.10088174  0.87523384     0.62500
H1549       H  0.06869995  0.12562557  0.87816162     0.11900
C1550       C  0.01520721  0.08276080  0.96979007     0.54700
H1551       H  0.04352201  0.06262852  0.97264089     0.07700
C1552       C  0.10306494  0.08054978  0.96165412    -0.06100
C1553       C  0.11701495  0.06960619  0.96818268    -0.06800
C1554       C  0.11068119  0.04767118  0.95615635    -0.16400
C1555       C  0.08935624  0.03598165  0.93755905    -0.02000
C1556       C  0.07571583  0.04719857  0.93032881    -0.09500
C1557       C  0.10982737  0.10358114  0.97705714     0.64700
H1558       H  0.13335232  0.07835705  0.98217303     0.10200
C1559       C  0.08175122  0.01240660  0.92353733     0.63100
H1560       H  0.05985830  0.03891265  0.91520795     0.07600
F1561       F  0.99612294  0.07983807  0.94999049    -0.19900
F1562       F  0.00826261  0.06209375  0.99016715    -0.16100
F1563       F  0.02102837  0.10066781  0.99105483    -0.19600
F1564       F  0.08370625  0.08040038  0.85858539    -0.23000
F1565       F  0.11383783  0.10535564  0.89006479    -0.24500
F1566       F  0.09726218  0.11922960  0.85091488    -0.18500
F1567       F  0.05932984  0.00292180  0.90967141    -0.21000
F1568       F  0.08119591  0.99665629  0.94961646    -0.22100
F1569       F  0.09759677  0.01515897  0.89795562    -0.19300
F1570       F  0.13034426  0.11136157  0.99589589    -0.19400
F1571       F  0.09165392  0.10044334  0.99874413    -0.23200
F1572       F  0.11363782  0.12091446  0.95148588    -0.24800
C1573       C  0.69338632  0.80042918  0.84925784    -0.11600
C1574       C  0.68440952  0.77871968  0.83506642     0.10900
C1575       C  0.69656472  0.76580750  0.84014808    -0.03400
C1576       C  0.71702013  0.77482361  0.86030814    -0.06200
C1577       C  0.72634762  0.79667250  0.87481391    -0.17000
C1578       C  0.71416939  0.80981454  0.86901414     0.02000
C1579       C  0.66168126  0.76947287  0.81608284     0.11900
C1580       C  0.68818616  0.74273671  0.82382226     0.62500
H1581       H  0.72609937  0.76474136  0.86455708     0.11900
C1582       C  0.72303762  0.83387564  0.88233648     0.54700
H1583       H  0.68376105  0.80996548  0.84465665     0.07700
C1584       C  0.63943064  0.75664368  0.83357252    -0.06100
C1585       C  0.61866113  0.74652119  0.81422311    -0.06800
C1586       C  0.61926422  0.74926848  0.77810575    -0.16400
C1587       C  0.64148018  0.76361023  0.76063062    -0.02000
C1588       C  0.66241603  0.77338173  0.78010251    -0.09500
C1589       C  0.63765348  0.75361869  0.87258446     0.64700
H1590       H  0.60156355  0.73603436  0.82729840     0.10200
C1591       C  0.64325014  0.76793621  0.72176494     0.63100
H1592       H  0.67964236  0.78379526  0.76737628     0.07600
F1593       F  0.72290023  0.83209230  0.91785004    -0.19900
F1594       F  0.70887583  0.84356156  0.87219475    -0.16100
F1595       F  0.74579882  0.84908390  0.86964850    -0.19600
F1596       F  0.68892646  0.74663917  0.78845487    -0.23000
F1597       F  0.66516095  0.72671905  0.83453474    -0.24500
F1598       F  0.70234499  0.73280846  0.83244291    -0.18500
F1599       F  0.63095124  0.77946733  0.71104125    -0.21000
F1600       F  0.63375923  0.74673109  0.70688812    -0.22100
F1601       F  0.66657964  0.78176129  0.71013719    -0.19300
F1602       F  0.61434092  0.74010797  0.88437990    -0.19400
F1603       F  0.64697170  0.77539560  0.88564499    -0.23200
F1604       F  0.65016920  0.74272352  0.88519799    -0.24800
C1605       C  0.52260513  0.70891814  0.42630884    -0.11600
C1606       C  0.52100387  0.68881422  0.44411116     0.10900
C1607       C  0.52117944  0.67112629  0.42566802    -0.03400
C1608       C  0.52324086  0.67436564  0.38954855    -0.06200
C1609       C  0.52446652  0.69434220  0.37141127    -0.17000
C1610       C  0.52438596  0.71214037  0.39018232     0.02000
C1611       C  0.51847934  0.68648831  0.48216889     0.11900
C1612       C  0.51880718  0.64877992  0.44414620     0.62500
H1613       H  0.52311978  0.66084918  0.37506627     0.11900
C1614       C  0.52667291  0.73472391  0.37265451     0.54700
H1615       H  0.52216066  0.72201686  0.44115249     0.07700
C1616       C  0.53840308  0.69697394  0.50347222    -0.06100
C1617       C  0.53469695  0.69315782  0.53926981    -0.06800
C1618       C  0.51178929  0.68009281  0.55430885    -0.16400
C1619       C  0.49176780  0.67030639  0.53293856    -0.02000
C1620       C  0.49553564  0.67368617  0.49701705    -0.09500
C1621       C  0.56336320  0.71266648  0.48851779     0.64700
H1622       H  0.54976570  0.70092210  0.55598073     0.10200
C1623       C  0.46668680  0.65586260  0.54782434     0.63100
H1624       H  0.48056898  0.66627286  0.48006547     0.07600
F1625       F  0.52973106  0.75077928  0.39609627    -0.19900
F1626       F  0.50636422  0.72995184  0.35469461    -0.16100
F1627       F  0.54616923  0.74521055  0.35041142    -0.19600
F1628       F  0.49734758  0.63670435  0.46208378    -0.23000
F1629       F  0.53708081  0.65430606  0.46695547    -0.24500
F1630       F  0.51962444  0.63392640  0.42147328    -0.18500
F1631       F  0.46083398  0.66999296  0.56507690    -0.21000
F1632       F  0.46511777  0.63776673  0.57031118    -0.22100
F1633       F  0.45011241  0.64608794  0.52253052    -0.19300
F1634       F  0.58026540  0.72009448  0.51383332    -0.19400
F1635       F  0.56463003  0.73239489  0.47097311    -0.23200
F1636       F  0.56905376  0.70073734  0.46612009    -0.24800
C1637       C  0.50646872  0.65859212  0.00211371    -0.11600
C1638       C  0.50187431  0.67413127  0.98143369     0.10900
C1639       C  0.49352498  0.68774946  0.99651094    -0.03400
C1640       C  0.49294858  0.68747978  0.03266401    -0.06200
C1641       C  0.49949438  0.67326701  0.05381349    -0.17000
C1642       C  0.50488831  0.65737670  0.03808464     0.02000
C1643       C  0.50672760  0.67606079  0.94405282     0.11900
C1644       C  0.48505941  0.70218338  0.97439213     0.62500
H1645       H  0.48797444  0.69888261  0.04455737     0.11900
C1646       C  0.50895713  0.63898561  0.05843173     0.54700
H1647       H  0.51202137  0.64779056  0.98967059     0.07700
C1648       C  0.52922556  0.69262189  0.92916858    -0.06100
C1649       C  0.53262035  0.69367229  0.89344896    -0.06800
C1650       C  0.51441431  0.67849732  0.87278679    -0.16400
C1651       C  0.49240463  0.66100627  0.88797277    -0.02000
C1652       C  0.48891002  0.66013764  0.92360522    -0.09500
C1653       C  0.54976977  0.70856581  0.95101643     0.64700
H1654       H  0.54941419  0.70658103  0.88125220     0.10200
C1655       C  0.47281329  0.64326213  0.86661713     0.63100
H1656       H  0.47213320  0.64719344  0.93580142     0.07600
F1657       F  0.53121331  0.64952280  0.07267904    -0.19900
F1658       F  0.50782420  0.62216916  0.03783010    -0.16100
F1659       F  0.49164347  0.62743792  0.08399495    -0.19600
F1660       F  0.46557936  0.68727776  0.95608888    -0.23000
F1661       F  0.50277773  0.71793003  0.95147220    -0.24500
F1662       F  0.47843732  0.71483982  0.99402278    -0.18500
F1663       F  0.45435740  0.62579684  0.88699033    -0.21000
F1664       F  0.48183243  0.63262832  0.84691240    -0.22100
F1665       F  0.46360605  0.65443978  0.84526351    -0.19300
F1666       F  0.56899517  0.72521636  0.93098174    -0.19400
F1667       F  0.55701653  0.69512660  0.97130198    -0.23200
F1668       F  0.54302256  0.72043124  0.97198715    -0.24800
C1669       C  0.64304593  0.75628127  0.32821878    -0.11600
C1670       C  0.66372439  0.77129033  0.30879708     0.10900
C1671       C  0.66222955  0.77492818  0.27269940    -0.03400
C1672       C  0.63985392  0.76288015  0.25734026    -0.06200
C1673       C  0.61917930  0.74761106  0.27688495    -0.17000
C1674       C  0.62065262  0.74500550  0.31319667     0.02000
C1675       C  0.68674669  0.78090257  0.32693198     0.11900
C1676       C  0.68402154  0.79156973  0.25051673     0.62500
H1677       H  0.63839044  0.76494821  0.22976713     0.11900
C1678       C  0.59877961  0.73085491  0.33647598     0.54700
H1679       H  0.64463369  0.75303821  0.35549846     0.07700
C1680       C  0.69377317  0.79829249  0.35074125    -0.06100
C1681       C  0.71511430  0.80503934  0.36848991    -0.06800
C1682       C  0.72966319  0.79497048  0.36346958    -0.16400
C1683       C  0.72234400  0.77748681  0.33910596    -0.02000
C1684       C  0.70075657  0.77053266  0.32217664    -0.09500
C1685       C  0.67868326  0.80949865  0.35772423     0.64700
H1686       H  0.72043369  0.81826609  0.38678238     0.10200
C1687       C  0.73671212  0.76580925  0.33042356     0.63100
H1688       H  0.69435322  0.75659178  0.30487200     0.07600
F1689       F  0.58120324  0.73614028  0.32664241    -0.19900
F1690       F  0.60374977  0.73594851  0.37042679    -0.16100
F1691       F  0.59044905  0.70706637  0.33472874    -0.19600
F1692       F  0.70036483  0.78377217  0.25159734    -0.23000
F1693       F  0.69440167  0.81379561  0.26232495    -0.24500
F1694       F  0.67829876  0.79326361  0.21645020    -0.18500
F1695       F  0.73943521  0.75422421  0.35967487    -0.21000
F1696       F  0.75868435  0.78257066  0.31672416    -0.22100
F1697       F  0.72579841  0.74937555  0.30638358    -0.19300
F1698       F  0.69011974  0.82799080  0.37849922    -0.19400
F1699       F  0.65762086  0.79304899  0.37417680    -0.23200
F1700       F  0.67367288  0.81809474  0.32714192    -0.24800
C1701       C  0.31591794  0.55789720  0.69554637    -0.11600
C1702       C  0.33116128  0.57863267  0.71109071     0.10900
C1703       C  0.32181763  0.58601223  0.73714803    -0.03400
C1704       C  0.29717537  0.57309941  0.74515690    -0.06200
C1705       C  0.28185803  0.55267227  0.72890043    -0.17000
C1706       C  0.29169137  0.54419106  0.70513352     0.02000
C1707       C  0.35703434  0.59146965  0.70093953     0.11900
C1708       C  0.33783358  0.60739500  0.75646903     0.62500
H1709       H  0.28953684  0.57934004  0.76338173     0.11900
C1710       C  0.27774379  0.52046613  0.69008442     0.54700
H1711       H  0.32319618  0.55195663  0.67628708     0.07700
C1712       C  0.37241964  0.58295556  0.71240738    -0.06100
C1713       C  0.39661681  0.59615700  0.70303360    -0.06800
C1714       C  0.40681000  0.61862403  0.68488254    -0.16400
C1715       C  0.39113272  0.62675455  0.67221375    -0.02000
C1716       C  0.36640967  0.61266146  0.67990713    -0.09500
C1717       C  0.36363942  0.56035901  0.73556771     0.64700
H1718       H  0.40800759  0.58910349  0.71146940     0.10200
C1719       C  0.40013839  0.65023286  0.65151908     0.63100
H1720       H  0.35418779  0.61854707  0.67069996     0.07600
F1721       F  0.29000938  0.50818977  0.69521169    -0.19900
F1722       F  0.27536327  0.52386624  0.65516985    -0.16100
F1723       F  0.25541194  0.50654458  0.70507588    -0.19600
F1724       F  0.34779433  0.62737300  0.73407514    -0.23000
F1725       F  0.35579015  0.60456158  0.77179624    -0.24500
F1726       F  0.32545754  0.61075117  0.78198970    -0.18500
F1727       F  0.38168888  0.65376551  0.63998537    -0.21000
F1728       F  0.41302904  0.65106219  0.62303295    -0.22100
F1729       F  0.41435695  0.66836241  0.67166286    -0.19300
F1730       F  0.38218820  0.55712415  0.74758495    -0.19400
F1731       F  0.34875474  0.54124198  0.71761526    -0.23200
F1732       F  0.35144138  0.56095942  0.76384898    -0.24800
C1733       C  0.11754009  0.35982610  0.83117371    -0.11600
C1734       C  0.10245853  0.35715749  0.85862578     0.10900
C1735       C  0.10189775  0.37706753  0.86882645    -0.03400
C1736       C  0.11425579  0.39845199  0.84853900    -0.06200
C1737       C  0.12810324  0.40106703  0.81909801    -0.17000
C1738       C  0.13079143  0.38152924  0.81147975     0.02000
C1739       C  0.08638656  0.33307362  0.87498961     0.11900
C1740       C  0.08838971  0.37568377  0.90121212     0.62500
H1741       H  0.11291590  0.41335872  0.85574260     0.11900
C1742       C  0.14730533  0.38314852  0.78293345     0.54700
H1743       H  0.11831826  0.34442154  0.82476559     0.07700
C1744       C  0.06480157  0.31746850  0.85971232    -0.06100
C1745       C  0.05068448  0.29474648  0.87580059    -0.06800
C1746       C  0.05714207  0.28714186  0.90682269    -0.16400
C1747       C  0.07807840  0.30331146  0.92306319    -0.02000
C1748       C  0.09256567  0.32592386  0.90648504    -0.09500
C1749       C  0.05675427  0.32479555  0.82645483     0.64700
H1750       H  0.03464106  0.28232632  0.86361700     0.10200
C1751       C  0.08539669  0.29666243  0.95726314     0.63100
H1752       H  0.10904370  0.33821941  0.91783283     0.07600
F1753       F  0.14762194  0.36228082  0.78116978    -0.19900
F1754       F  0.17027338  0.40046516  0.78889283    -0.16100
F1755       F  0.14000621  0.38828214  0.75153049    -0.19600
F1756       F  0.09871889  0.37070163  0.92957144    -0.23000
F1757       F  0.06490961  0.35820543  0.89997799    -0.24500
F1758       F  0.08873175  0.39661726  0.90549040    -0.18500
F1759       F  0.08804439  0.27713821  0.95473103    -0.21000
F1760       F  0.06816204  0.29174702  0.98190094    -0.22100
F1761       F  0.10670161  0.31469384  0.96794680    -0.19300
F1762       F  0.03502954  0.30713088  0.81631892    -0.19400
F1763       F  0.07317232  0.33016476  0.80029472    -0.23200
F1764       F  0.05448496  0.34435122  0.83084547    -0.24800
C1765       C  0.15340512  0.49921600  0.45025088    -0.11600
C1766       C  0.17527515  0.50597079  0.46585078     0.10900
C1767       C  0.19522214  0.51051162  0.44560613    -0.03400
C1768       C  0.19255147  0.50873585  0.41001245    -0.06200
C1769       C  0.17085503  0.50294894  0.39385187    -0.17000
C1770       C  0.15092407  0.49846563  0.41442719     0.02000
C1771       C  0.17649024  0.50824667  0.50348338     0.11900
C1772       C  0.21915132  0.51686938  0.46130565     0.62500
H1773       H  0.20762099  0.51172647  0.39445892     0.11900
C1774       C  0.12737933  0.49383219  0.39927364     0.54700
H1775       H  0.13823236  0.49494354  0.46660145     0.07700
C1776       C  0.17503860  0.52670342  0.51811754    -0.06100
C1777       C  0.17477979  0.52687503  0.55413373    -0.06800
C1778       C  0.17638301  0.50957381  0.57545461    -0.16400
C1779       C  0.17862395  0.49161266  0.56084086    -0.02000
C1780       C  0.17808047  0.49096155  0.52493202    -0.09500
C1781       C  0.17402100  0.54624788  0.49587358     0.64700
H1782       H  0.17304627  0.54038765  0.56602022     0.10200
C1783       C  0.18187315  0.47343104  0.58309020     0.63100
H1784       H  0.17865063  0.47677167  0.51325883     0.07600
F1785       F  0.13112745  0.51061206  0.37276874    -0.19900
F1786       F  0.11253632  0.49481357  0.42346580    -0.16100
F1787       F  0.11589226  0.47169685  0.38723574    -0.19600
F1788       F  0.21758267  0.49755683  0.48056146    -0.23000
F1789       F  0.22596886  0.53519501  0.48215444    -0.24500
F1790       F  0.23682656  0.52381244  0.43639323    -0.18500
F1791       F  0.18449238  0.45800621  0.56360500    -0.21000
F1792       F  0.16235205  0.46045066  0.60477995    -0.22100
F1793       F  0.20200306  0.48464479  0.60246044    -0.19300
F1794       F  0.17507456  0.56353472  0.51532714    -0.19400
F1795       F  0.15306872  0.53733162  0.47806410    -0.23200
F1796       F  0.19302706  0.55665734  0.47273095    -0.24800
C1797       C  0.15804225  0.47951814  0.95312558    -0.11600
C1798       C  0.17189073  0.50188010  0.96511241     0.10900
C1799       C  0.18370366  0.52195188  0.94189848    -0.03400
C1800       C  0.18094738  0.51893258  0.90675047    -0.06200
C1801       C  0.16714491  0.49659383  0.89448315    -0.17000
C1802       C  0.15525158  0.47647146  0.91781864     0.02000
C1803       C  0.17396406  0.50386059  0.00232222     0.11900
C1804       C  0.19971869  0.54627495  0.95421294     0.62500
H1805       H  0.18998056  0.53405066  0.88838464     0.11900
C1806       C  0.14033350  0.45199501  0.90565622     0.54700
H1807       H  0.14943039  0.46451239  0.97178048     0.07700
C1808       C  0.15716837  0.50629812  0.02154400    -0.06100
C1809       C  0.16126256  0.50990862  0.05646651    -0.06800
C1810       C  0.18081179  0.50986050  0.07275139    -0.16400
C1811       C  0.19685170  0.50601530  0.05362266    -0.02000
C1812       C  0.19330404  0.50348361  0.01830910    -0.09500
C1813       C  0.13479508  0.50444571  0.00535876     0.64700
H1814       H  0.14874982  0.51209706  0.07171240     0.10200
C1815       C  0.21711616  0.50386359  0.07021502     0.63100
H1816       H  0.20558108  0.50114184  0.00274975     0.07600
F1817       F  0.12090403  0.45061333  0.88835657    -0.19900
F1818       F  0.13196816  0.43486268  0.93279019    -0.16100
F1819       F  0.15382796  0.44718323  0.88399522    -0.19600
F1820       F  0.21896024  0.54664580  0.97076600    -0.23000
F1821       F  0.18740563  0.55190852  0.97676758    -0.24500
F1822       F  0.20826109  0.56352139  0.92723564    -0.18500
F1823       F  0.22769468  0.49602706  0.04799590    -0.21000
F1824       F  0.20882988  0.48794783  0.09878573    -0.22100
F1825       F  0.23421314  0.52563759  0.07967066    -0.19300
F1826       F  0.12036799  0.50642792  0.02910977    -0.19400
F1827       F  0.12180795  0.48284690  0.99185263    -0.23200
F1828       F  0.14067983  0.52201979  0.97931380    -0.24800
C1829       C  0.32752323  0.59595052  0.23772638    -0.11600
C1830       C  0.33341566  0.60993362  0.20644938     0.10900
C1831       C  0.31518676  0.61046497  0.18660295    -0.03400
C1832       C  0.29146190  0.59560998  0.19768222    -0.06200
C1833       C  0.28529968  0.58022108  0.22773320    -0.17000
C1834       C  0.30369106  0.58128077  0.24910052     0.02000
C1835       C  0.35877596  0.62283558  0.19471589     0.11900
C1836       C  0.32039847  0.62516493  0.15253588     0.62500
H1837       H  0.27733054  0.59501171  0.18170508     0.11900
C1838       C  0.29831595  0.56653871  0.28299024     0.54700
H1839       H  0.34186253  0.59615993  0.25274159     0.07700
C1840       C  0.37538384  0.64446741  0.20768222    -0.06100
C1841       C  0.39960925  0.65397087  0.19920543    -0.06800
C1842       C  0.40762028  0.64221907  0.17923839    -0.16400
C1843       C  0.39104617  0.62142673  0.16456233    -0.02000
C1844       C  0.36666956  0.61204244  0.17242251    -0.09500
C1845       C  0.36776248  0.65686637  0.23174248     0.64700
H1846       H  0.41274479  0.66989607  0.21017827     0.10200
C1847       C  0.39933203  0.60941827  0.14094617     0.63100
H1848       H  0.35367021  0.59564340  0.16247422     0.07600
F1849       F  0.28531835  0.57216409  0.30431261    -0.19900
F1850       F  0.31886383  0.57052164  0.29979323    -0.16100
F1851       F  0.28546324  0.54291542  0.27735278    -0.19600
F1852       F  0.32622063  0.61470531  0.12782184    -0.23000
F1853       F  0.33908385  0.64766131  0.15526418    -0.24500
F1854       F  0.30090169  0.62712496  0.14165267    -0.18500
F1855       F  0.38041649  0.59023198  0.12745278    -0.21000
F1856       F  0.41316533  0.60170976  0.15879200    -0.22100
F1857       F  0.41269752  0.62521108  0.11394122    -0.19300
F1858       F  0.38666947  0.67818508  0.23990890    -0.19400
F1859       F  0.35840343  0.64291477  0.26194032    -0.23200
F1860       F  0.35073529  0.66125681  0.21662180    -0.24800
C1861       C  0.06848070  0.32959153  0.38505032    -0.11600
C1862       C  0.09311378  0.33873211  0.38138289     0.10900
C1863       C  0.10366267  0.32599813  0.39706975    -0.03400
C1864       C  0.08878990  0.30338860  0.41327674    -0.06200
C1865       C  0.06396184  0.29362133  0.41518610    -0.17000
C1866       C  0.05366095  0.30709547  0.40152214     0.02000
C1867       C  0.10726964  0.36154559  0.36051491     0.11900
C1868       C  0.13048090  0.33634213  0.39668816     0.62500
H1869       H  0.09635248  0.29269497  0.42332375     0.11900
C1870       C  0.02698900  0.29728533  0.40354880     0.54700
H1871       H  0.06085239  0.33991779  0.37371120     0.07700
C1872       C  0.10998819  0.36272890  0.32428315    -0.06100
C1873       C  0.12303119  0.38493326  0.30611165    -0.06800
C1874       C  0.13223687  0.40583933  0.32266546    -0.16400
C1875       C  0.12940999  0.40468186  0.35893248    -0.02000
C1876       C  0.11712326  0.38243155  0.37725016    -0.09500
C1877       C  0.09841964  0.34071774  0.30467649     0.64700
H1878       H  0.12520161  0.38621026  0.27844451     0.10200
C1879       C  0.13941089  0.42677865  0.37833377     0.63100
H1880       H  0.11456957  0.38111892  0.40484120     0.07600
F1881       F  0.01549739  0.27674112  0.38694270    -0.19900
F1882       F  0.02039714  0.31295919  0.38840829    -0.16100
F1883       F  0.01958329  0.29254751  0.43765967    -0.19600
F1884       F  0.14071773  0.35646225  0.41432857    -0.23000
F1885       F  0.13944919  0.34208956  0.36334709    -0.24500
F1886       F  0.13707022  0.32075853  0.41217195    -0.18500
F1887       F  0.12733522  0.43884353  0.36981123    -0.21000
F1888       F  0.16330216  0.44113100  0.37011771    -0.22100
F1889       F  0.13714713  0.42162393  0.41357260    -0.19300
F1890       F  0.10280868  0.34595367  0.26961537    -0.19400
F1891       F  0.07408832  0.32914251  0.31023611    -0.23200
F1892       F  0.10703155  0.32582217  0.31552744    -0.24800
C1893       C  0.23397222  0.91495716  0.87187342    -0.11600
C1894       C  0.24724461  0.92558894  0.84135521     0.10900
C1895       C  0.25107780  0.94806850  0.82895441    -0.03400
C1896       C  0.24186708  0.95935416  0.84802509    -0.06200
C1897       C  0.22850059  0.94894904  0.87888340    -0.17000
C1898       C  0.22454472  0.92607838  0.89111684     0.02000
C1899       C  0.25708541  0.91278720  0.82309967     0.11900
C1900       C  0.26493283  0.96020143  0.79563674     0.62500
H1901       H  0.24491870  0.97654774  0.83837198     0.11900
C1902       C  0.21064999  0.91307279  0.92417301     0.54700
H1903       H  0.23106031  0.89762112  0.88048277     0.07700
C1904       C  0.27841333  0.91332657  0.83318323    -0.06100
C1905       C  0.28722405  0.90169898  0.81413656    -0.06800
C1906       C  0.27550596  0.88922981  0.78527992    -0.16400
C1907       C  0.25362286  0.88827139  0.77585192    -0.02000
C1908       C  0.24476174  0.89984289  0.79532073    -0.09500
C1909       C  0.29159633  0.92577776  0.86449692     0.64700
H1910       H  0.30355014  0.90222195  0.82220950     0.10200
C1911       C  0.23990468  0.87599377  0.74486129     0.63100
H1912       H  0.22819218  0.89930502  0.78861580     0.07600
F1913       F  0.21055771  0.89202369  0.93166556    -0.19900
F1914       F  0.18722688  0.90780053  0.92115683    -0.16100
F1915       F  0.22080390  0.92675655  0.95150915    -0.19600
F1916       F  0.25446547  0.94607799  0.76888211    -0.23000
F1917       F  0.28806000  0.96458261  0.79868529    -0.24500
F1918       F  0.26556860  0.98142342  0.78725863    -0.18500
F1919       F  0.21984839  0.87823578  0.73979097    -0.21000
F1920       F  0.23251684  0.85222785  0.74931283    -0.22100
F1921       F  0.25424131  0.88584855  0.71566807    -0.19300
F1922       F  0.31282260  0.92562588  0.86867636    -0.19400
F1923       F  0.27763978  0.91460839  0.89371330    -0.23200
F1924       F  0.29670521  0.94896581  0.86142009    -0.24800
C1925       C  0.25899596  0.69320810  0.74067917    -0.11600
C1926       C  0.26119480  0.68568476  0.70890929     0.10900
C1927       C  0.27476314  0.70241645  0.68204180    -0.03400
C1928       C  0.28534802  0.72632155  0.68765107    -0.06200
C1929       C  0.28352013  0.73440045  0.71946470    -0.17000
C1930       C  0.27036730  0.71730857  0.74690893     0.02000
C1931       C  0.24880664  0.66013471  0.70395780     0.11900
C1932       C  0.27805714  0.69504925  0.64739968     0.62500
H1933       H  0.29525255  0.73892716  0.66653154     0.17300
C1934       C  0.26826712  0.72396983  0.78259894     0.54700
H1935       H  0.24835095  0.67986633  0.76071412     0.07700
C1936       C  0.25805052  0.64541114  0.71620969    -0.06100
C1937       C  0.24537165  0.62141270  0.70998577    -0.06800
C1938       C  0.22381895  0.61190113  0.69244214    -0.16400
C1939       C  0.21524843  0.62688958  0.67887150    -0.02000
C1940       C  0.22780374  0.65080480  0.68523255    -0.09500
C1941       C  0.28077089  0.65487276  0.73658990     0.64700
H1942       H  0.25141321  0.60957143  0.72072311     0.10200
C1943       C  0.19288329  0.61763222  0.65789846     0.63100
H1944       H  0.22111559  0.66242003  0.67598940     0.07600
F1945       F  0.25417727  0.70443354  0.80460299    -0.19900
F1946       F  0.25812529  0.73828896  0.78082877    -0.16100
F1947       F  0.29056487  0.73553618  0.79667834    -0.19600
F1948       F  0.25664724  0.68470903  0.63073530    -0.23000
F1949       F  0.28626461  0.67915732  0.65195069    -0.24500
F1950       F  0.29431356  0.71400773  0.62629619    -0.18500
F1951       F  0.17310251  0.60517894  0.67933380    -0.21000
F1952       F  0.19311885  0.60302786  0.63426862    -0.22100
F1953       F  0.19111750  0.63574893  0.63996808    -0.19300
F1954       F  0.28752611  0.63800402  0.74385362    -0.19400
F1955       F  0.27740629  0.66205769  0.76739402    -0.23200
F1956       F  0.29915610  0.67381263  0.71817735    -0.24800
C1957       C  0.39118028  0.75697587  0.68090448    -0.11600
C1958       C  0.41596493  0.76990042  0.68402150     0.10900
C1959       C  0.42764394  0.79479214  0.68057319    -0.03400
C1960       C  0.41388191  0.80586060  0.67532534    -0.06200
C1961       C  0.38889364  0.79310429  0.67522622    -0.17000
C1962       C  0.37724176  0.76812496  0.67776497     0.02000
C1963       C  0.42946047  0.75709433  0.69058326     0.11900
C1964       C  0.45445199  0.80974195  0.68381824     0.62500
H1965       H  0.42258821  0.82489563  0.67305798     0.11900
C1966       C  0.35036505  0.75329292  0.67965628     0.54700
H1967       H  0.38276035  0.73796607  0.68256764     0.07700
C1968       C  0.42989247  0.74633879  0.72333008    -0.06100
C1969       C  0.44419342  0.73563823  0.72748163    -0.06800
C1970       C  0.45895693  0.73659437  0.70065620    -0.16400
C1971       C  0.45980518  0.74915840  0.66886885    -0.02000
C1972       C  0.44360486  0.75739283  0.66368972    -0.09500
C1973       C  0.41576697  0.74656218  0.75385539     0.64700
H1974       H  0.44379250  0.72624636  0.75173612     0.10200
C1975       C  0.47825503  0.75600467  0.64036955     0.63100
H1976       H  0.44318480  0.76572304  0.63879291     0.07600
F1977       F  0.34281739  0.72943965  0.68315259    -0.19900
F1978       F  0.34082527  0.75775031  0.64996725    -0.16100
F1979       F  0.34176021  0.75866165  0.70778104    -0.19600
F1980       F  0.46597094  0.80687325  0.65670949    -0.23000
F1981       F  0.46156198  0.80323780  0.71437253    -0.24500
F1982       F  0.46164566  0.83346041  0.68353225    -0.18500
F1983       F  0.48807364  0.77978549  0.63075256    -0.21000
F1984       F  0.46738531  0.74361025  0.61217156    -0.22100
F1985       F  0.49681482  0.75224337  0.65011341    -0.19300
F1986       F  0.41885835  0.73519660  0.78321762    -0.19400
F1987       F  0.39179166  0.73534199  0.74699066    -0.23200
F1988       F  0.42312293  0.76954188  0.76058655    -0.24800
C1989       C  0.33463242  0.82456882  0.42925475    -0.11600
C1990       C  0.33232056  0.84190453  0.44474090     0.10900
C1991       C  0.32833131  0.85836358  0.42440593    -0.03400
C1992       C  0.32584433  0.85622012  0.38891286    -0.06200
C1993       C  0.32702125  0.83815606  0.37322434    -0.17000
C1994       C  0.33177459  0.82209052  0.39378611     0.02000
C1995       C  0.33381074  0.84205047  0.48254417     0.11900
C1996       C  0.32650496  0.87797336  0.44006578     0.62500
H1997       H  0.32252718  0.86857988  0.37313860     0.11900
C1998       C  0.33384673  0.80237317  0.37905688     0.54700
H1999       H  0.33819690  0.81258761  0.44557844     0.07700
C2000       C  0.31446809  0.82603060  0.50443473    -0.06100
C2001       C  0.31685802  0.82790594  0.54006761    -0.06800
C2002       C  0.33812778  0.84461214  0.55411469    -0.16400
C2003       C  0.35789879  0.85961981  0.53223056    -0.02000
C2004       C  0.35529608  0.85817146  0.49656135    -0.09500
C2005       C  0.29180842  0.80656085  0.49033618     0.64700
H2006       H  0.30215414  0.81619048  0.55734757     0.10200
C2007       C  0.38177819  0.87661098  0.54644408     0.63100
H2008       H  0.37003356  0.86968205  0.47920404     0.07600
F2009       F  0.34163795  0.79115870  0.40309992    -0.19900
F2010       F  0.34996120  0.81125695  0.35173992    -0.16100
F2011       F  0.31182097  0.78571583  0.36837453    -0.19600
F2012       F  0.34803859  0.89324006  0.45383250    -0.23000
F2013       F  0.30910656  0.86861333  0.46569993    -0.24500
F2014       F  0.32070636  0.89084310  0.41591095    -0.18500
F2015       F  0.39954909  0.88607388  0.52127005    -0.21000
F2016       F  0.38811000  0.86504692  0.57201522    -0.22100
F2017       F  0.38045239  0.89487974  0.55981514    -0.19300
F2018       F  0.27433793  0.79466955  0.51566467    -0.19400
F2019       F  0.29665703  0.79045083  0.47673079    -0.23200
F2020       F  0.28287646  0.81573939  0.46490665    -0.24800
C2021       C  0.34855302  0.86547998  0.99642593    -0.11600
C2022       C  0.33540275  0.84368161  0.98264547     0.10900
C2023       C  0.32553907  0.82277284  0.00439943    -0.03400
C2024       C  0.32718244  0.82458516  0.04002011    -0.06200
C2025       C  0.33881042  0.84654506  0.05442822    -0.17000
C2026       C  0.35066824  0.86744920  0.03206132     0.02000
C2027       C  0.33320546  0.84350474  0.94500270     0.11900
C2028       C  0.31328728  0.79871497  0.99004788     0.62500
H2029       H  0.31871995  0.80862916  0.05686006     0.11900
C2030       C  0.36577399  0.89174412  0.04497124     0.54700
H2031       H  0.35675469  0.88108416  0.97876346     0.07700
C2032       C  0.31595326  0.84746643  0.92760187    -0.06100
C2033       C  0.31576892  0.84811986  0.89154823    -0.06800
C2034       C  0.33236662  0.84522161  0.87298928    -0.16400
C2035       C  0.35005810  0.84196187  0.89045769    -0.02000
C2036       C  0.35003885  0.84108416  0.92637933    -0.09500
C2037       C  0.29785715  0.85090722  0.94698348     0.64700
H2038       H  0.30249787  0.85064773  0.87750505     0.10200
C2039       C  0.36981236  0.84007169  0.87302049     0.63100
H2040       H  0.36357272  0.83880297  0.94014487     0.07600
F2041       F  0.37856280  0.90850968  0.01854731    -0.19900
F2042       F  0.38192480  0.89131940  0.06831876    -0.16100
F2043       F  0.35145026  0.89879105  0.06024727    -0.19600
F2044       F  0.32903185  0.79648739  0.96925562    -0.23000
F2045       F  0.29403592  0.79600480  0.97092294    -0.24500
F2046       F  0.30519312  0.78064354  0.01584111    -0.18500
F2047       F  0.36948792  0.84218140  0.83760345    -0.21000
F2048       F  0.36802070  0.81856277  0.88322681    -0.22100
F2049       F  0.39152136  0.85776184  0.88305657    -0.19300
F2050       F  0.28328654  0.85530969  0.92487657    -0.19400
F2051       F  0.30933396  0.86979451  0.96694656    -0.23200
F2052       F  0.28365782  0.83092710  0.96798676    -0.24800
C2053       C  0.21525774  0.90876089  0.35318958    -0.11600
C2054       C  0.23882299  0.92074258  0.34086771     0.10900
C2055       C  0.25310190  0.94496198  0.34602286    -0.03400
C2056       C  0.24299980  0.95649187  0.36268937    -0.06200
C2057       C  0.21930624  0.94457853  0.37518567    -0.17000
C2058       C  0.20526183  0.91998719  0.37084526     0.02000
C2059       C  0.24784857  0.90744994  0.32217182     0.11900
C2060       C  0.27876583  0.95883885  0.33317511     0.62500
H2061       H  0.25367105  0.97512656  0.36593265     0.11900
C2062       C  0.17966229  0.90544394  0.38390622     0.54700
H2063       H  0.20467432  0.89031279  0.34871189     0.07700
C2064       C  0.25377250  0.89124304  0.33949040    -0.06100
C2065       C  0.26216409  0.87941145  0.32003648    -0.06800
C2066       C  0.26537626  0.88363750  0.28416385    -0.16400
C2067       C  0.26046607  0.90059884  0.26710329    -0.02000
C2068       C  0.25099209  0.91162451  0.28630723    -0.09500
C2069       C  0.25196163  0.88697946  0.37840987     0.64700
H2070       H  0.26683191  0.86703074  0.33284079     0.10200
C2071       C  0.26665931  0.90811856  0.22926447     0.63100
H2072       H  0.24649336  0.92412686  0.27353594     0.07600
F2073       F  0.16908753  0.88253117  0.37451473    -0.19900
F2074       F  0.16644390  0.91538475  0.37044649    -0.16100
F2075       F  0.17890540  0.90438500  0.41940815    -0.19600
F2076       F  0.27935654  0.96324098  0.29791620    -0.23000
F2077       F  0.29055932  0.94639230  0.34134099    -0.24500
F2078       F  0.29093717  0.98016487  0.34776194    -0.18500
F2079       F  0.26296504  0.92668916  0.21860802    -0.21000
F2080       F  0.25275494  0.88949582  0.20980750    -0.22100
F2081       F  0.29038949  0.91530581  0.22324385    -0.19300
F2082       F  0.26131318  0.87280313  0.39017204    -0.19400
F2083       F  0.22842300  0.87603592  0.38914116    -0.23200
F2084       F  0.26439173  0.90814313  0.39328607    -0.24800
C2085       C  0.25214819  0.68932981  0.21989067    -0.11600
C2086       C  0.26301851  0.68392742  0.19390885     0.10900
C2087       C  0.28257380  0.70230553  0.17500744    -0.03400
C2088       C  0.29102873  0.72556694  0.18351227    -0.06200
C2089       C  0.28011075  0.73134439  0.20932039    -0.17000
C2090       C  0.26014094  0.71275385  0.22780118     0.02000
C2091       C  0.25328345  0.65878013  0.18698929     0.11900
C2092       C  0.29408332  0.69742091  0.14538461     0.62500
H2093       H  0.30620794  0.73963989  0.16928571     0.11900
C2094       C  0.24666215  0.71740101  0.25470353     0.54700
H2095       H  0.23702795  0.67487722  0.23371128     0.07700
C2096       C  0.25920765  0.64366369  0.20745785    -0.06100
C2097       C  0.24768077  0.61963995  0.20159566    -0.06800
C2098       C  0.23004314  0.61028282  0.17689050    -0.16400
C2099       C  0.22484858  0.62541077  0.15546850    -0.02000
C2100       C  0.23682067  0.64963955  0.16058068    -0.09500
C2101       C  0.27635267  0.65244077  0.23692323     0.64700
H2102       H  0.25088825  0.60757506  0.21836287     0.10200
C2103       C  0.20620550  0.61563300  0.12819473     0.63100
H2104       H  0.23255076  0.66144545  0.14512165     0.07600
F2105       F  0.22677714  0.69692550  0.26733458    -0.19900
F2106       F  0.23914883  0.73254382  0.24043241    -0.16100
F2107       F  0.26118619  0.72724578  0.28205212    -0.19600
F2108       F  0.27803997  0.68867878  0.11923055    -0.23000
F2109       F  0.30094900  0.68111284  0.15622357    -0.24500
F2110       F  0.31403985  0.71756621  0.13211801    -0.18500
F2111       F  0.18397284  0.60207172  0.14365253    -0.21000
F2112       F  0.21091649  0.60178715  0.10816277    -0.22100
F2113       F  0.20592607  0.63335909  0.10690016    -0.19300
F2114       F  0.28194118  0.63561858  0.25036301    -0.19400
F2115       F  0.26614706  0.65796766  0.26291516    -0.23200
F2116       F  0.29730840  0.67223911  0.22585540    -0.24800
C2117       C  0.41030123  0.78220732  0.15737230    -0.11600
C2118       C  0.40340096  0.76398379  0.18353535     0.10900
C2119       C  0.38347923  0.75785543  0.20504405    -0.03400
C2120       C  0.37123864  0.77052071  0.19982264    -0.06200
C2121       C  0.37872887  0.78937031  0.17468592    -0.17000
C2122       C  0.39829641  0.79521683  0.15270759     0.02000
C2123       C  0.41861698  0.75303855  0.18979002     0.11900
C2124       C  0.37582560  0.73874020  0.23430956     0.62500
H2125       H  0.35650958  0.76675165  0.21683042     0.11900
C2126       C  0.40640971  0.81514557  0.12479609     0.54700
H2127       H  0.42568019  0.78664615  0.14138196     0.07700
C2128       C  0.41651102  0.73460672  0.17085512    -0.06100
C2129       C  0.43151614  0.72511448  0.17874367    -0.06800
C2130       C  0.44917239  0.73408835  0.20384982    -0.16400
C2131       C  0.45153448  0.75301847  0.22218718    -0.02000
C2132       C  0.43594292  0.76194779  0.21496888    -0.09500
C2133       C  0.39910611  0.72562374  0.14168812     0.64700
H2134       H  0.42991776  0.71083806  0.16456388     0.10200
C2135       C  0.47107818  0.76470496  0.24782878     0.63100
H2136       H  0.43732694  0.77633929  0.22864262     0.07600
F2137       F  0.42616982  0.81835554  0.10676065    -0.19900
F2138       F  0.41222731  0.83594585  0.13907564    -0.16100
F2139       F  0.38825778  0.81012682  0.10188705    -0.19600
F2140       F  0.39353388  0.74522086  0.25828953    -0.23000
F2141       F  0.37149348  0.71783137  0.22186419    -0.24500
F2142       F  0.35529667  0.73483539  0.25088103    -0.18500
F2143       F  0.49292999  0.77201496  0.23230801    -0.21000
F2144       F  0.46764884  0.74907889  0.27585325    -0.22100
F2145       F  0.47144922  0.78425175  0.25978149    -0.19300
F2146       F  0.39870916  0.70650484  0.12814436    -0.19400
F2147       F  0.40562297  0.74329246  0.11558785    -0.23200
F2148       F  0.37635356  0.71876745  0.15317990    -0.24800
C2149       C  0.60133685  0.61817952  0.71173983    -0.11600
C2150       C  0.61675426  0.62876603  0.68305701     0.10900
C2151       C  0.62123874  0.65098045  0.66838528    -0.03400
C2152       C  0.60965773  0.66176128  0.68274033    -0.06200
C2153       C  0.59283309  0.65047404  0.70983281    -0.17000
C2154       C  0.58897910  0.62856412  0.72527125     0.02000
C2155       C  0.62642844  0.61527466  0.66725063     0.11900
C2156       C  0.63702494  0.66254177  0.63644502     0.62500
H2157       H  0.61210590  0.67833707  0.67093950     0.11900
C2158       C  0.57105371  0.61564538  0.75453248     0.54700
H2159       H  0.59818458  0.60109889  0.72232979     0.07700
C2160       C  0.64710931  0.61526008  0.67940849    -0.06100
C2161       C  0.65483130  0.60157243  0.66355760    -0.06800
C2162       C  0.64155506  0.58665244  0.63793378    -0.16400
C2163       C  0.62066770  0.58646373  0.62614089    -0.02000
C2164       C  0.61374632  0.60130260  0.64053932    -0.09500
C2165       C  0.65966945  0.62789911  0.71088016     0.64700
H2166       H  0.67026664  0.60079369  0.67319521     0.10200
C2167       C  0.60503432  0.56963332  0.60018865     0.63100
H2168       H  0.59775165  0.60141034  0.63210219     0.07600
F2169       F  0.56964794  0.59432013  0.76504754    -0.19900
F2170       F  0.54872084  0.61121703  0.74433004    -0.16100
F2171       F  0.57772495  0.62926078  0.78231838    -0.19600
F2172       F  0.62726468  0.64858178  0.60930053    -0.23000
F2173       F  0.65942473  0.66547510  0.64234947    -0.24500
F2174       F  0.63946213  0.68441799  0.62690320    -0.18500
F2175       F  0.58462585  0.57108839  0.59414506    -0.21000
F2176       F  0.59822294  0.54673390  0.61220654    -0.22100
F2177       F  0.61748492  0.57493119  0.56940228    -0.19300
F2178       F  0.68062547  0.62741864  0.71652733    -0.19400
F2179       F  0.64497034  0.61701536  0.73953487    -0.23200
F2180       F  0.66510021  0.65116654  0.70709785    -0.24800
C2181       C  0.74572846  0.63623502  0.49443484    -0.11600
C2182       C  0.74498528  0.65538001  0.50709566     0.10900
C2183       C  0.73590678  0.65300107  0.54090204    -0.03400
C2184       C  0.72714031  0.63121150  0.56048813    -0.06200
C2185       C  0.72797024  0.61213853  0.54783763    -0.17000
C2186       C  0.73792164  0.61480055  0.51464040     0.02000
C2187       C  0.75573934  0.67841948  0.48584251     0.11900
C2188       C  0.73568342  0.67352193  0.55625582     0.62500
H2189       H  0.71922925  0.62876843  0.58575189     0.11900
C2190       C  0.74141472  0.59545645  0.50151824     0.54700
H2191       H  0.75315368  0.63848235  0.46888205     0.07700
C2192       C  0.78059262  0.69398964  0.48499306    -0.06100
C2193       C  0.78948001  0.71684802  0.46917511    -0.06800
C2194       C  0.77454385  0.72461073  0.45372729    -0.16400
C2195       C  0.74994540  0.70849345  0.45197680    -0.02000
C2196       C  0.74085561  0.68553771  0.46824410    -0.09500
C2197       C  0.79765447  0.68673549  0.50160260     0.64700
H2198       H  0.80828295  0.72939714  0.47014546     0.10200
C2199       C  0.73362710  0.71560265  0.43287999     0.63100
H2200       H  0.72196987  0.67318309  0.46822376     0.07600
F2201       F  0.75061461  0.60108156  0.46823952    -0.19900
F2202       F  0.72008614  0.57463681  0.50189469    -0.16100
F2203       F  0.75710740  0.59208511  0.52247294    -0.19600
F2204       F  0.72113582  0.67985804  0.53746590    -0.23000
F2205       F  0.75844938  0.69258300  0.55574330    -0.24500
F2206       F  0.72737118  0.66795111  0.58999684    -0.18500
F2207       F  0.71007917  0.69804952  0.43598991    -0.21000
F2208       F  0.74013631  0.72003970  0.39845957    -0.22100
F2209       F  0.73545720  0.73564549  0.44530476    -0.19300
F2210       F  0.82082283  0.70517554  0.50030976    -0.19400
F2211       F  0.79710977  0.66875959  0.48452710    -0.23200
F2212       F  0.79129235  0.67908522  0.53573743    -0.24800
C2213       C  0.67257583  0.49465830  0.84394956    -0.11600
C2214       C  0.65171388  0.49268855  0.85758326     0.10900
C2215       C  0.63289742  0.48940725  0.83548567    -0.03400
C2216       C  0.63545817  0.48742555  0.80037120    -0.06200
C2217       C  0.65657128  0.48998077  0.78642825    -0.17000
C2218       C  0.67558765  0.49379188  0.80858099     0.02000
C2219       C  0.65141921  0.49626949  0.89466250     0.11900
C2220       C  0.61081528  0.48931793  0.84834474     0.62500
H2221       H  0.62130688  0.48499804  0.78299798     0.11900
C2222       C  0.69927039  0.49783536  0.79518272     0.54700
H2223       H  0.68683915  0.49756174  0.86137082     0.07700
C2224       C  0.64547448  0.47776708  0.92043019    -0.06100
C2225       C  0.64836922  0.48307756  0.95503904    -0.06800
C2226       C  0.65768057  0.50625842  0.96460410    -0.16400
C2227       C  0.66382257  0.52479233  0.93871496    -0.02000
C2228       C  0.66039025  0.51938120  0.90405402    -0.09500
C2229       C  0.63723733  0.45275044  0.91139205     0.64700
H2230       H  0.64403115  0.46912244  0.97507292     0.10200
C2231       C  0.67507453  0.55021857  0.94744652     0.63100
H2232       H  0.66541390  0.53330357  0.88375710     0.07600
F2233       F  0.71634730  0.50515208  0.82026740    -0.19900
F2234       F  0.70764135  0.51504820  0.76821174    -0.16100
F2235       F  0.69642005  0.47705572  0.78430661    -0.19600
F2236       F  0.61724438  0.51021339  0.86272117    -0.23000
F2237       F  0.59875691  0.47085946  0.87280274    -0.24500
F2238       F  0.59535320  0.48703897  0.82199944    -0.18500
F2239       F  0.68222671  0.56563184  0.91826128    -0.21000
F2240       F  0.69488385  0.55583044  0.96720497    -0.22100
F2241       F  0.65886175  0.55347028  0.96549479    -0.19300
F2242       F  0.63110554  0.43723984  0.94040251    -0.19400
F2243       F  0.65525273  0.45205957  0.89390370    -0.23200
F2244       F  0.61757486  0.44496715  0.89085928    -0.24800
C2245       C  0.68700427  0.51976659  0.33498765    -0.11600
C2246       C  0.66630957  0.50859383  0.35557649     0.10900
C2247       C  0.64409012  0.49428596  0.34074883    -0.03400
C2248       C  0.64342699  0.49166722  0.30518489    -0.06200
C2249       C  0.66425448  0.50251002  0.28460441    -0.17000
C2250       C  0.68646391  0.51671986  0.29968442     0.02000
C2251       C  0.66871414  0.51161521  0.39292700     0.11900
C2252       C  0.62128794  0.48205498  0.36243858     0.62500
H2253       H  0.62659122  0.48129568  0.29303361     0.11900
C2254       C  0.70946290  0.52898840  0.27859732     0.54700
H2255       H  0.70369879  0.53075186  0.34706946     0.07700
C2256       C  0.67551664  0.49805479  0.41503607    -0.06100
C2257       C  0.67669341  0.50110171  0.45026796    -0.06800
C2258       C  0.67162656  0.51744864  0.46443229    -0.16400
C2259       C  0.66567905  0.53177804  0.44161903    -0.02000
C2260       C  0.66448818  0.52855843  0.40613289    -0.09500
C2261       C  0.68165962  0.48047586  0.40141057     0.64700
H2262       H  0.68152757  0.49029719  0.46702909     0.10200
C2263       C  0.66005287  0.55000016  0.45392508     0.63100
H2264       H  0.65978479  0.53897729  0.38821357     0.07600
F2265       F  0.72886620  0.54227926  0.29836223    -0.19900
F2266       F  0.70817183  0.54388651  0.25274213    -0.16100
F2267       F  0.71329968  0.51243815  0.26434273    -0.19600
F2268       F  0.61748212  0.49861540  0.37676592    -0.23000
F2269       F  0.62290426  0.46744857  0.38852709    -0.24500
F2270       F  0.60172422  0.46850922  0.34314750    -0.18500
F2271       F  0.65663039  0.56287546  0.42687073    -0.21000
F2272       F  0.67855525  0.56574240  0.47287327    -0.22100
F2273       F  0.63938403  0.53881615  0.47373329    -0.19300
F2274       F  0.68659808  0.46814606  0.42758612    -0.19400
F2275       F  0.70150037  0.49218941  0.37991744    -0.23200
F2276       F  0.66289022  0.46433898  0.38328064    -0.24800
C2277       C  0.60578685  0.59902348  0.13628818    -0.11600
C2278       C  0.61952365  0.61426648  0.16127084     0.10900
C2279       C  0.64072083  0.61477007  0.17215306    -0.03400
C2280       C  0.64751516  0.59994212  0.15747763    -0.06200
C2281       C  0.63339770  0.58401510  0.13343471    -0.17000
C2282       C  0.61220835  0.58354747  0.12249839     0.02000
C2283       C  0.61083302  0.62895629  0.17636367     0.11900
C2284       C  0.65552388  0.63012857  0.20024378     0.62500
H2285       H  0.66329892  0.59956027  0.16636175     0.11900
C2286       C  0.59593632  0.56594409  0.09790030     0.54700
H2287       H  0.58949023  0.59876883  0.12861807     0.07700
C2288       C  0.61409256  0.65010546  0.15904982    -0.06100
C2289       C  0.60362927  0.66201193  0.17330109    -0.06800
C2290       C  0.58954895  0.65317997  0.20368535    -0.16400
C2291       C  0.58812941  0.63320643  0.22258461    -0.02000
C2292       C  0.59858307  0.62118535  0.20825493    -0.09500
C2293       C  0.62729404  0.65929290  0.12461542     0.64700
H2294       H  0.60477218  0.67745569  0.15924442     0.10200
C2295       C  0.57514640  0.62430056  0.25707260     0.63100
H2296       H  0.59665616  0.60514840  0.22133627     0.07600
F2297       F  0.57600799  0.56810278  0.09090235    -0.19900
F2298       F  0.58843861  0.54331816  0.11202534    -0.16100
F2299       F  0.60805054  0.56952894  0.06725087    -0.19600
F2300       F  0.64257660  0.62270432  0.23084307    -0.23000
F2301       F  0.66178540  0.65333016  0.19156568    -0.24500
F2302       F  0.67620195  0.62905663  0.20548702    -0.18500
F2303       F  0.55158650  0.61842908  0.25351873    -0.21000
F2304       F  0.58579542  0.64169361  0.27975072    -0.22100
F2305       F  0.57582098  0.60458159  0.27104026    -0.19300
F2306       F  0.63057763  0.68136151  0.11400745    -0.19400
F2307       F  0.61444862  0.64411299  0.09992425    -0.23200
F2308       F  0.64943875  0.66099620  0.12679496    -0.24800
C2309       C  0.75004531  0.63668292  0.99589690    -0.11600
C2310       C  0.74398950  0.65369904  0.00362757     0.10900
C2311       C  0.72704180  0.64828501  0.03028141    -0.03400
C2312       C  0.71647123  0.62581902  0.04787940    -0.06200
C2313       C  0.72286188  0.60900289  0.04065683    -0.17000
C2314       C  0.74012278  0.61448392  0.01439007     0.02000
C2315       C  0.75662391  0.67756014  0.98506002     0.11900
C2316       C  0.72052998  0.66631742  0.04074054     0.62500
H2317       H  0.70317902  0.62121439  0.06791591     0.11900
C2318       C  0.74891999  0.59799550  0.00476064     0.54700
H2319       H  0.76298242  0.64093413  0.97544239     0.07700
C2320       C  0.77999557  0.69428996  0.99359708    -0.06100
C2321       C  0.78966375  0.71745413  0.97883170    -0.06800
C2322       C  0.77657806  0.72477337  0.95699097    -0.16400
C2323       C  0.75379431  0.70771632  0.94669678    -0.02000
C2324       C  0.74435903  0.68416355  0.96051991    -0.09500
C2325       C  0.79424216  0.68811450  0.01963274     0.64700
H2326       H  0.80730921  0.73054341  0.98584273     0.10200
C2327       C  0.73916135  0.71449753  0.92262524     0.63100
H2328       H  0.72675780  0.67089371  0.95364851     0.07600
F2329       F  0.77288386  0.60796033  0.01160628    -0.19900
F2330       F  0.74586865  0.59486395  0.97001982    -0.16100
F2331       F  0.73724777  0.57610193  0.02234436    -0.19600
F2332       F  0.70968929  0.67210842  0.01391327    -0.23000
F2333       F  0.74077919  0.68637711  0.04941367    -0.24500
F2334       F  0.70499289  0.65788467  0.06882947    -0.18500
F2335       F  0.75070721  0.72276530  0.89099019    -0.21000
F2336       F  0.73613499  0.73184579  0.93597116    -0.22100
F2337       F  0.71688139  0.69555622  0.91774835    -0.19300
F2338       F  0.81611247  0.70739660  0.02539272    -0.19400
F2339       F  0.79833029  0.67102564  0.00786739    -0.23200
F2340       F  0.78188116  0.67984751  0.05070843    -0.24800
C2341       C  0.57563940  0.32474958  0.60031124    -0.11600
C2342       C  0.58820109  0.32937910  0.63118752     0.10900
C2343       C  0.58865624  0.31078210  0.65134315    -0.03400
C2344       C  0.57578527  0.28798418  0.64040773    -0.06200
C2345       C  0.56177725  0.28287706  0.61080403    -0.17000
C2346       C  0.56251835  0.30171387  0.58945355     0.02000
C2347       C  0.59995948  0.35373312  0.64238033     0.11900
C2348       C  0.60215923  0.31478571  0.68473387     0.62500
H2349       H  0.57582803  0.27359290  0.65594644     0.11900
C2350       C  0.54920732  0.29758287  0.55604474     0.54700
H2351       H  0.57576351  0.33935894  0.58517365     0.07700
C2352       C  0.62199989  0.37157582  0.62790530    -0.06100
C2353       C  0.63111484  0.39457339  0.63781317    -0.06800
C2354       C  0.61894989  0.40018305  0.66143463    -0.16400
C2355       C  0.59775337  0.38223692  0.67751724    -0.02000
C2356       C  0.58836995  0.35915051  0.66742284    -0.09500
C2357       C  0.63542414  0.36664672  0.60114938     0.64700
H2358       H  0.64716985  0.40876246  0.62542969     0.10200
C2359       C  0.58550388  0.38766648  0.70527741     0.63100
H2360       H  0.57163369  0.34522607  0.67845211     0.07600
F2361       F  0.55195593  0.31830969  0.53973565    -0.19900
F2362       F  0.52520301  0.28252630  0.56240695    -0.16100
F2363       F  0.55780510  0.28781211  0.53396444    -0.19600
F2364       F  0.59269632  0.32289467  0.70818323    -0.23000
F2365       F  0.62585111  0.33114661  0.67869373    -0.24500
F2366       F  0.60091514  0.29429622  0.69948159    -0.18500
F2367       F  0.56615173  0.36749690  0.71981494    -0.21000
F2368       F  0.57769316  0.40270516  0.69166210    -0.22100
F2369       F  0.60140148  0.39832515  0.73100822    -0.19300
F2370       F  0.65751943  0.38601643  0.59314918    -0.19400
F2371       F  0.62261037  0.36084011  0.57131584    -0.23200
F2372       F  0.63891310  0.34823257  0.61326475    -0.24800
C2373       C  0.38980239  0.99321044  0.69350938    -0.11600
C2374       C  0.37737374  0.99743802  0.66662060     0.10900
C2375       C  0.35579842  0.97884427  0.65573034    -0.03400
C2376       C  0.34841778  0.95599817  0.67034490    -0.06200
C2377       C  0.36170936  0.95150437  0.69566347    -0.17000
C2378       C  0.38194977  0.97046193  0.70896273     0.02000
C2379       C  0.38848732  0.02129550  0.64900988     0.11900
C2380       C  0.34106464  0.98302398  0.62823183     0.62500
H2381       H  0.33274337  0.94121281  0.66091533     0.11900
C2382       C  0.39565874  0.96659615  0.73822808     0.54700
H2383       H  0.40620849  0.00785157  0.70149967     0.07700
C2384       C  0.38825343  0.04010766  0.66398323    -0.06100
C2385       C  0.40214934  0.06284372  0.64850427    -0.06800
C2386       C  0.41714405  0.06744065  0.61990207    -0.16400
C2387       C  0.41583776  0.04844020  0.60313547    -0.02000
C2388       C  0.40151230  0.02547775  0.61832940    -0.09500
C2389       C  0.37483963  0.03652640  0.69748415     0.64700
H2390       H  0.40294131  0.07760571  0.66043835     0.10200
C2391       C  0.42999763  0.05233924  0.57039684     0.63100
H2392       H  0.40122336  0.01065097  0.60732433     0.07600
F2393       F  0.41436282  0.98758159  0.74783359    -0.19900
F2394       F  0.40475728  0.95267573  0.72848353    -0.16100
F2395       F  0.38065795  0.95566873  0.76655703    -0.19600
F2396       F  0.35376651  0.99122294  0.59746509    -0.23000
F2397       F  0.33526508  0.99945410  0.63795751    -0.24500
F2398       F  0.32008528  0.96261616  0.62288441    -0.18500
F2399       F  0.45402363  0.06552846  0.57634777    -0.21000
F2400       F  0.42364209  0.06405708  0.54513078    -0.22100
F2401       F  0.42578440  0.03132013  0.55828786    -0.19300
F2402       F  0.37512500  0.05689724  0.70545048    -0.19400
F2403       F  0.38518075  0.02988792  0.72408976    -0.23200
F2404       F  0.35139711  0.01925486  0.69525038    -0.24800
C2405       C  0.31924360  0.09949374  0.45322295    -0.11600
C2406       C  0.33201129  0.09007284  0.47117663     0.10900
C2407       C  0.32328620  0.06545693  0.47223004    -0.03400
C2408       C  0.30080489  0.05086958  0.45845393    -0.06200
C2409       C  0.28736402  0.06019438  0.44228007    -0.17000
C2410       C  0.29738135  0.08497880  0.43782356     0.02000
C2411       C  0.35377805  0.10599698  0.49015577     0.11900
C2412       C  0.33715126  0.05448141  0.48926015     0.62500
H2413       H  0.29292088  0.03191878  0.46208486     0.11900
C2414       C  0.28464233  0.09595860  0.41757983     0.54700
H2415       H  0.32611470  0.11829708  0.45239025     0.07700
C2416       C  0.37598324  0.12124730  0.47335711    -0.06100
C2417       C  0.39622147  0.13346443  0.49347418    -0.06800
C2418       C  0.39488166  0.13130887  0.52961311    -0.16400
C2419       C  0.37248206  0.11689872  0.54633227    -0.02000
C2420       C  0.35225469  0.10469163  0.52621683    -0.09500
C2421       C  0.37839766  0.12420289  0.43442237     0.64700
H2422       H  0.41347606  0.14456159  0.48109948     0.10200
C2423       C  0.37016344  0.11353939  0.58525381     0.63100
H2424       H  0.33505032  0.09335367  0.53857383     0.07600
F2425       F  0.29775727  0.12028079  0.41494932    -0.19900
F2426       F  0.26315234  0.08944587  0.43343420    -0.16100
F2427       F  0.28076250  0.08843030  0.38471646    -0.19600
F2428       F  0.33598804  0.05467728  0.52454052    -0.23000
F2429       F  0.36069463  0.06692937  0.47826056    -0.24500
F2430       F  0.32814260  0.03142642  0.48126717    -0.18500
F2431       F  0.37571250  0.13462224  0.59837601    -0.21000
F2432       F  0.38545561  0.10593858  0.59833281    -0.22100
F2433       F  0.34732301  0.09702163  0.59630749    -0.19300
F2434       F  0.40176782  0.13856794  0.42342443    -0.19400
F2435       F  0.36534675  0.13434116  0.42109815    -0.23200
F2436       F  0.37020026  0.10254994  0.42136485    -0.24800
C2437       C  0.51489819  0.19010942  0.89404241    -0.11600
C2438       C  0.49425087  0.17438861  0.87799139     0.10900
C2439       C  0.47358015  0.15877568  0.89773212    -0.03400
C2440       C  0.47413613  0.16007093  0.93348662    -0.06200
C2441       C  0.49465765  0.17630783  0.94975091    -0.17000
C2442       C  0.51554261  0.19159385  0.92969366     0.02000
C2443       C  0.49532267  0.17421426  0.84035560     0.11900
C2444       C  0.45108198  0.14096079  0.88109215     0.62500
H2445       H  0.45838196  0.14848583  0.94905230     0.11900
C2446       C  0.53858543  0.20920753  0.94537594     0.54700
H2447       H  0.53053693  0.20143144  0.87809751     0.07700
C2448       C  0.49242696  0.19059881  0.81805629    -0.06100
C2449       C  0.49316861  0.18897880  0.78249743    -0.06800
C2450       C  0.49744314  0.17207504  0.76905792    -0.16400
C2451       C  0.50208390  0.15685804  0.79146347    -0.02000
C2452       C  0.50079247  0.15813764  0.82702697    -0.09500
C2453       C  0.48912490  0.20993621  0.83181739     0.64700
H2454       H  0.49040695  0.20093008  0.76481146     0.10200
C2455       C  0.50922179  0.14004428  0.77794302     0.63100
H2456       H  0.50398436  0.14654706  0.84486736     0.07600
F2457       F  0.53571852  0.22687431  0.95783055    -0.19900
F2458       F  0.55723602  0.21968741  0.92157455    -0.16100
F2459       F  0.54484485  0.19802835  0.97162689    -0.19600
F2460       F  0.45587447  0.12673370  0.86214868    -0.23000
F2461       F  0.44231847  0.15253145  0.85961109    -0.24500
F2462       F  0.43356443  0.12654763  0.90527905    -0.18500
F2463       F  0.51558899  0.12891566  0.80416935    -0.21000
F2464       F  0.52850562  0.15230763  0.75547153    -0.22100
F2465       F  0.49045857  0.12292507  0.76103469    -0.19300
F2466       F  0.48598791  0.22357668  0.80566006    -0.19400
F2467       F  0.50899226  0.22457403  0.84968246    -0.23200
F2468       F  0.46944373  0.20027277  0.85364723    -0.24800
C2469       C  0.51602864  0.19003211  0.39275495    -0.11600
C2470       C  0.49582964  0.17360122  0.37655026     0.10900
C2471       C  0.47487451  0.15832872  0.39593970    -0.03400
C2472       C  0.47486109  0.16031635  0.43151956    -0.06200
C2473       C  0.49501438  0.17703515  0.44797744    -0.17000
C2474       C  0.51603862  0.19229938  0.42819085     0.02000
C2475       C  0.49784673  0.17217393  0.33933713     0.11900
C2476       C  0.45265738  0.14013296  0.37914003     0.62500
H2477       H  0.45893903  0.14883773  0.44681543     0.11900
C2478       C  0.53860275  0.21062294  0.44402208     0.54700
H2479       H  0.53187048  0.20119785  0.37710918     0.07700
C2480       C  0.49573519  0.18801837  0.31484937    -0.06100
C2481       C  0.49856492  0.18598424  0.28002158    -0.06800
C2482       C  0.50351688  0.16886935  0.26914295    -0.16400
C2483       C  0.50648839  0.15354542  0.29371806    -0.02000
C2484       C  0.50369339  0.15560855  0.32871547    -0.09500
C2485       C  0.49047366  0.20692900  0.32531919     0.64700
H2486       H  0.49646614  0.19757527  0.26075434     0.10200
C2487       C  0.51341067  0.13583131  0.28326756     0.63100
H2488       H  0.50597607  0.14425699  0.34822632     0.07600
F2489       F  0.55753712  0.22124431  0.42070065    -0.19900
F2490       F  0.54496810  0.20016579  0.47116031    -0.16100
F2491       F  0.53487450  0.22808133  0.45528510    -0.19600
F2492       F  0.45771888  0.12547388  0.36172607    -0.23000
F2493       F  0.44418750  0.15123360  0.35620368    -0.24500
F2494       F  0.43476218  0.12622941  0.40309379    -0.18500
F2495       F  0.51762162  0.12440281  0.31154426    -0.21000
F2496       F  0.53394846  0.14723041  0.26308030    -0.22100
F2497       F  0.49536768  0.11898650  0.26498870    -0.19300
F2498       F  0.48898072  0.22023198  0.29708582    -0.19400
F2499       F  0.50830045  0.22200873  0.34580628    -0.23200
F2500       F  0.46910159  0.19673003  0.34335891    -0.24800
C2501       C  0.58046005  0.35959852  0.16232463    -0.11600
C2502       C  0.59399301  0.35344439  0.14219967     0.10900
C2503       C  0.61761278  0.37046347  0.13244452    -0.03400
C2504       C  0.62706810  0.39319172  0.14386176    -0.06200
C2505       C  0.61322066  0.39965241  0.16293712    -0.17000
C2506       C  0.58962545  0.38246963  0.17285081     0.02000
C2507       C  0.58298078  0.32880994  0.13249232     0.11900
C2508       C  0.63211655  0.36505153  0.10823042     0.62500
H2509       H  0.64477356  0.40671633  0.13539131     0.11900
C2510       C  0.57337961  0.38718294  0.19442710     0.54700
H2511       H  0.56238392  0.34635862  0.16968865     0.07700
C2512       C  0.58314893  0.31104901  0.15502549    -0.06100
C2513       C  0.57190071  0.28800255  0.14499569    -0.06800
C2514       C  0.55931766  0.28155924  0.11407790    -0.16400
C2515       C  0.55879589  0.29947013  0.09176498    -0.02000
C2516       C  0.57099229  0.32293242  0.10128435    -0.09500
C2517       C  0.59411599  0.31615953  0.19037909     0.64700
H2518       H  0.57205460  0.27452937  0.16249882     0.10200
C2519       C  0.54459509  0.29390652  0.05911351     0.63100
H2520       H  0.57077445  0.33689614  0.08484907     0.07600
F2521       F  0.56576723  0.37154184  0.22333363    -0.19900
F2522       F  0.55378611  0.38377585  0.17551586    -0.16100
F2523       F  0.58432884  0.40968552  0.20530595    -0.19600
F2524       F  0.62098425  0.35980956  0.07698738    -0.23000
F2525       F  0.63416756  0.34604083  0.12177537    -0.24500
F2526       F  0.65479560  0.38395139  0.10235565    -0.18500
F2527       F  0.54501743  0.31363575  0.04287097    -0.21000
F2528       F  0.52111863  0.27743023  0.06690258    -0.22100
F2529       F  0.55396689  0.28522103  0.03640857    -0.19300
F2530       F  0.59287736  0.29639156  0.20789895    -0.19400
F2531       F  0.58208530  0.32385717  0.20996141    -0.23200
F2532       F  0.61776904  0.33331248  0.18739474    -0.24800
C2533       C  0.40329568  0.02256958  0.12534083    -0.11600
C2534       C  0.38894596  0.01943414  0.15416123     0.10900
C2535       C  0.38933362  0.03917592  0.16709756    -0.03400
C2536       C  0.40485250  0.06157526  0.15148907    -0.06200
C2537       C  0.42043684  0.06497005  0.12424837    -0.17000
C2538       C  0.41916838  0.04517404  0.11001085     0.02000
C2539       C  0.37583301  0.99561796  0.17233769     0.11900
C2540       C  0.37444644  0.03684755  0.19837532     0.62500
H2541       H  0.40611923  0.07697456  0.16203855     0.11900
C2542       C  0.43514170  0.04795654  0.08000424     0.54700
H2543       H  0.40273481  0.00716400  0.11596915     0.07700
C2544       C  0.35424127  0.97765459  0.16021003    -0.06100
C2545       C  0.34496302  0.95472384  0.17577987    -0.06800
C2546       C  0.35687845  0.94916357  0.20213500    -0.16400
C2547       C  0.37743431  0.96742393  0.21604977    -0.02000
C2548       C  0.38661464  0.99049713  0.20076069    -0.09500
C2549       C  0.34168420  0.98232811  0.12989523     0.64700
H2550       H  0.32914420  0.94046243  0.16567725     0.10200
C2551       C  0.39027767  0.96239523  0.24548495     0.63100
H2552       H  0.40305799  0.00459425  0.20970059     0.07600
F2553       F  0.43110689  0.02641846  0.07026473    -0.19900
F2554       F  0.45871667  0.06081592  0.08884884    -0.16100
F2555       F  0.43086897  0.05954791  0.05209552    -0.19600
F2556       F  0.38232710  0.02935438  0.22719552    -0.23000
F2557       F  0.35085165  0.02077980  0.19368278    -0.24500
F2558       F  0.37585562  0.05805591  0.20438348    -0.18500
F2559       F  0.39796735  0.94730410  0.23589185    -0.21000
F2560       F  0.37501594  0.95214179  0.27368765    -0.22100
F2561       F  0.40987202  0.98273271  0.25513761    -0.19300
F2562       F  0.32038495  0.96252229  0.12350185    -0.19400
F2563       F  0.35594668  0.98912460  0.10064681    -0.23200
F2564       F  0.33678382  0.99996668  0.13632682    -0.24800
C2565       C  0.35427191  0.10738997  0.03031416    -0.11600
C2566       C  0.35612445  0.10915741  0.99421997     0.10900
C2567       C  0.37852403  0.12423015  0.97795911    -0.03400
C2568       C  0.39865250  0.13576617  0.99853875    -0.06200
C2569       C  0.39700789  0.13325154  0.03471468    -0.17000
C2570       C  0.37438203  0.11916089  0.05092186     0.02000
C2571       C  0.33431986  0.09460694  0.97430788     0.11900
C2572       C  0.38111038  0.12790685  0.93903792     0.62500
H2573       H  0.41606663  0.14656081  0.98647528     0.11900
C2574       C  0.37165209  0.11599820  0.08979516     0.54700
H2575       H  0.33689198  0.09623115  0.04226844     0.07700
C2576       C  0.32612234  0.07048175  0.97015483    -0.06100
C2577       C  0.30418963  0.05713099  0.95408221    -0.06800
C2578       C  0.29008877  0.06699139  0.94268214    -0.16400
C2579       C  0.29885868  0.09137009  0.94535203    -0.02000
C2580       C  0.32092052  0.10481748  0.96099234    -0.09500
C2581       C  0.33985596  0.05856596  0.98437798     0.64700
H2582       H  0.29692049  0.03836331  0.95290491     0.10200
C2583       C  0.28434200  0.10282675  0.93290262     0.63100
H2584       H  0.32737093  0.12322486  0.96441018     0.07600
F2585       F  0.34874774  0.09940542  0.10044402    -0.19900
F2586       F  0.37691136  0.13717676  0.10234017    -0.16100
F2587       F  0.38690905  0.10863649  0.10380409    -0.19600
F2588       F  0.36769770  0.13781451  0.92635954    -0.23000
F2589       F  0.37335987  0.10664668  0.92497718    -0.24500
F2590       F  0.40446417  0.14278140  0.92838553    -0.18500
F2591       F  0.26387985  0.09402067  0.95290130    -0.21000
F2592       F  0.27819377  0.09816455  0.89911861    -0.22100
F2593       F  0.29687925  0.12699546  0.93452781    -0.19300
F2594       F  0.32961194  0.03549869  0.97582235    -0.19400
F2595       F  0.34033397  0.05848309  0.01979842    -0.23200
F2596       F  0.36290749  0.07043722  0.97137718    -0.24800
C2597       C  0.88817285  0.24715040  0.54821994    -0.11600
C2598       C  0.91288384  0.26071551  0.54344070     0.10900
C2599       C  0.92483794  0.28414053  0.55309783    -0.03400
C2600       C  0.91151644  0.29310820  0.56772562    -0.06200
C2601       C  0.88669479  0.27961625  0.57259086    -0.17000
C2602       C  0.87472058  0.25614342  0.56254996     0.02000
C2603       C  0.92558043  0.25008288  0.52703625     0.11900
C2604       C  0.95142854  0.29988781  0.54696820     0.62500
H2605       H  0.92048032  0.31101495  0.57520427     0.11900
C2606       C  0.84785911  0.24090471  0.56527509     0.54700
H2607       H  0.87946603  0.22939138  0.54017287     0.07700
C2608       C  0.93240967  0.23512730  0.54594102    -0.06100
C2609       C  0.94465384  0.22599428  0.52863076    -0.06800
C2610       C  0.94925712  0.23048733  0.49299081    -0.16400
C2611       C  0.94171242  0.24486067  0.47397183    -0.02000
C2612       C  0.93018519  0.25462998  0.49150174    -0.09500
C2613       C  0.92634492  0.22851111  0.58403198     0.64700
H2614       H  0.95033189  0.21479410  0.54271942     0.10200
C2615       C  0.94584684  0.24995800  0.43542703     0.63100
H2616       H  0.92431518  0.26570202  0.47750235     0.07600
F2617       F  0.83997351  0.21982869  0.55045741    -0.19900
F2618       F  0.83733391  0.25267553  0.54848650    -0.16100
F2619       F  0.84050116  0.23562462  0.59939426    -0.19600
F2620       F  0.95623845  0.30512994  0.51206235    -0.23000
F2621       F  0.96356582  0.28873174  0.56017597    -0.24500
F2622       F  0.95995302  0.32082880  0.56243265    -0.18500
F2623       F  0.94031994  0.26699458  0.42287683    -0.21000
F2624       F  0.93169965  0.22963666  0.41932872    -0.22100
F2625       F  0.96943561  0.25791592  0.42722017    -0.19300
F2626       F  0.93598562  0.21510301  0.59801489    -0.19400
F2627       F  0.90195099  0.21552702  0.58880479    -0.23200
F2628       F  0.93499771  0.24852377  0.60175111    -0.24800
C2629       C  0.75900543  0.40296698  0.68766189    -0.11600
C2630       C  0.74582390  0.39840062  0.65728603     0.10900
C2631       C  0.74668925  0.38283670  0.63479787    -0.03400
C2632       C  0.76184967  0.37354354  0.64242218    -0.06200
C2633       C  0.77611832  0.37924251  0.67146671    -0.17000
C2634       C  0.77404734  0.39331628  0.69538590     0.02000
C2635       C  0.73322287  0.41188956  0.64790743     0.11900
C2636       C  0.73243403  0.37670826  0.60211064     0.62500
H2637       H  0.76355018  0.36246218  0.62471189     0.11900
C2638       C  0.78760055  0.39797464  0.72857406     0.54700
H2639       H  0.75792465  0.41468806  0.70476956     0.07700
C2640       C  0.71045025  0.40536111  0.66139896    -0.06100
C2641       C  0.70030618  0.41964716  0.65186534    -0.06800
C2642       C  0.71217950  0.44026925  0.62962906    -0.16400
C2643       C  0.73467864  0.44633044  0.61539304    -0.02000
C2644       C  0.74483707  0.43204247  0.62500352    -0.09500
C2645       C  0.69733857  0.38402692  0.68685450     0.64700
H2646       H  0.68321627  0.41524588  0.66285222     0.10200
C2647       C  0.74827781  0.46812608  0.59107652     0.63100
H2648       H  0.76222459  0.43663575  0.61496308     0.07600
F2649       F  0.78358076  0.41255433  0.74802672    -0.19900
F2650       F  0.81173012  0.40854676  0.72152972    -0.16100
F2651       F  0.78038074  0.37688718  0.74786516    -0.19600
F2652       F  0.74034726  0.39656136  0.57969166    -0.23000
F2653       F  0.70861060  0.36788119  0.60964674    -0.24500
F2654       F  0.73462010  0.35986915  0.58556865    -0.18500
F2655       F  0.75155107  0.48782318  0.60646237    -0.21000
F2656       F  0.73566339  0.46579798  0.56128600    -0.22100
F2657       F  0.77043887  0.47156547  0.58207550    -0.19300
F2658       F  0.67450812  0.37951789  0.69405152    -0.19400
F2659       F  0.70952083  0.38790582  0.71726935    -0.23200
F2660       F  0.69559867  0.36420796  0.67388758    -0.24800
C2661       C  0.63874337  0.23246732  0.67428468    -0.11600
C2662       C  0.65000992  0.25150304  0.64936061     0.10900
C2663       C  0.63606003  0.25830987  0.62822219    -0.03400
C2664       C  0.61118261  0.24572729  0.63272116    -0.06200
C2665       C  0.59990769  0.22606742  0.65645109    -0.17000
C2666       C  0.61373667  0.21937042  0.67785939     0.02000
C2667       C  0.67639062  0.26354097  0.64497785     0.11900
C2668       C  0.64729180  0.27784387  0.59962928     0.62500
H2669       H  0.60017630  0.25009123  0.61590326     0.11900
C2670       C  0.60192366  0.19824732  0.70379992     0.54700
H2671       H  0.64968609  0.22743812  0.69007003     0.07700
C2672       C  0.69165401  0.28209432  0.66499246    -0.06100
C2673       C  0.71628035  0.29362005  0.65802051    -0.06800
C2674       C  0.72637640  0.28647474  0.63304630    -0.16400
C2675       C  0.71099456  0.26731873  0.61364824    -0.02000
C2676       C  0.68619045  0.25633474  0.61987364    -0.09500
C2677       C  0.68203746  0.28905369  0.69452381     0.64700
H2678       H  0.72803859  0.30810582  0.67290481     0.10200
C2679       C  0.72046997  0.25804072  0.58711456     0.63100
H2680       H  0.67410532  0.24190508  0.60514524     0.07600
F2681       F  0.61835187  0.19608016  0.72471050    -0.19900
F2682       F  0.58968408  0.17792297  0.68687573    -0.16100
F2683       F  0.58613204  0.20054447  0.72444949    -0.19600
F2684       F  0.65717734  0.27104444  0.57483871    -0.23000
F2685       F  0.66486207  0.29820358  0.61248810    -0.24500
F2686       F  0.63077412  0.28290572  0.58402610    -0.18500
F2687       F  0.73739984  0.25316803  0.60153472    -0.21000
F2688       F  0.73048801  0.27463935  0.55958436    -0.22100
F2689       F  0.70265619  0.23750594  0.57478953    -0.19300
F2690       F  0.69987316  0.30785482  0.71032682    -0.19400
F2691       F  0.67129886  0.27024220  0.71892776    -0.23200
F2692       F  0.66551879  0.29536629  0.68284687    -0.24800
C2693       C  0.98991005  0.39792707  0.64986377    -0.11600
C2694       C  0.99413070  0.38758482  0.68010533     0.10900
C2695       C  0.97516646  0.36713738  0.69666520    -0.03400
C2696       C  0.95236184  0.35795558  0.68274451    -0.06200
C2697       C  0.94766660  0.36901667  0.65366445    -0.17000
C2698       C  0.96683827  0.38916251  0.63651368     0.02000
C2699       C  0.01791309  0.40010743  0.69595620     0.11900
C2700       C  0.97889715  0.35569216  0.72972034     0.62500
H2701       H  0.93757421  0.34263730  0.69574375     0.11900
C2702       C  0.96277894  0.40210905  0.60560954     0.54700
H2703       H  0.00473420  0.41363531  0.63772369     0.07700
C2704       C  0.03728496  0.39676851  0.68778870    -0.06100
C2705       C  0.05942171  0.41083849  0.70258165    -0.06800
C2706       C  0.06298759  0.42828945  0.72458309    -0.16400
C2707       C  0.04359254  0.43135834  0.73305320    -0.02000
C2708       C  0.02127171  0.41696497  0.71890385    -0.09500
C2709       C  0.03609140  0.37941695  0.66302831     0.64700
H2710       H  0.07454263  0.40905158  0.69534401     0.10200
C2711       C  0.04685723  0.45070289  0.75523229     0.63100
H2712       H  0.00629337  0.41931818  0.72468658     0.07600
F2713       F  0.95457654  0.38763063  0.57880920    -0.19900
F2714       F  0.98346588  0.42230807  0.59454086    -0.16100
F2715       F  0.94621489  0.40858796  0.61391558    -0.19600
F2716       F  0.98640634  0.37133729  0.75508046    -0.23000
F2717       F  0.99592114  0.34928394  0.72429039    -0.24500
F2718       F  0.95821530  0.33572890  0.74146606    -0.18500
F2719       F  0.06373676  0.47231125  0.74021174    -0.21000
F2720       F  0.05428328  0.44702606  0.78737867    -0.22100
F2721       F  0.02595277  0.45131228  0.75931790    -0.19300
F2722       F  0.04252350  0.36410673  0.67988790    -0.19400
F2723       F  0.05194446  0.39158588  0.63588195    -0.23200
F2724       F  0.01379197  0.36621814  0.64975291    -0.24800
C2725       C  0.82693584  0.33671084  0.85571359    -0.11600
C2726       C  0.83971406  0.32592030  0.86951222     0.10900
C2727       C  0.84856815  0.31567097  0.84745567    -0.03400
C2728       C  0.84459659  0.31701447  0.81208725    -0.06200
C2729       C  0.83285401  0.32883118  0.79796346    -0.17000
C2730       C  0.82405996  0.33911170  0.82000640     0.02000
C2731       C  0.84344665  0.32558986  0.90720436     0.11900
C2732       C  0.86271433  0.30395217  0.86091196     0.62500
H2733       H  0.85125398  0.30928387  0.79481602     0.11900
C2734       C  0.81332113  0.35391904  0.80586871     0.54700
H2735       H  0.81991403  0.34397720  0.87320369     0.07700
C2736       C  0.85951504  0.34603485  0.92353323    -0.06100
C2737       C  0.86113692  0.34445921  0.95954943    -0.06800
C2738       C  0.84717780  0.32330868  0.97940815    -0.16400
C2739       C  0.83209845  0.30262418  0.96288877    -0.02000
C2740       C  0.83016172  0.30427861  0.92700036    -0.09500
C2741       C  0.87448269  0.36953477  0.90325518     0.64700
H2742       H  0.87248586  0.36006800  0.97268756     0.10200
C2743       C  0.81837214  0.27882310  0.98286986     0.63100
H2744       H  0.81781001  0.28893932  0.91409094     0.07600
F2745       F  0.80683979  0.36310003  0.83179274    -0.19900
F2746       F  0.79325478  0.34042391  0.78755482    -0.16100
F2747       F  0.82979211  0.37249993  0.78446572    -0.19600
F2748       F  0.84837689  0.28391787  0.88171537    -0.23000
F2749       F  0.88168234  0.31930757  0.87960599    -0.24500
F2750       F  0.87169749  0.29740133  0.83450086    -0.18500
F2751       F  0.80897631  0.26063625  0.96129952    -0.21000
F2752       F  0.79978683  0.27779902  0.00121186    -0.22100
F2753       F  0.83331998  0.27525698  0.00526455    -0.19300
F2754       F  0.89073793  0.38628666  0.92378981    -0.19400
F2755       F  0.86002460  0.37786492  0.88929988    -0.23200
F2756       F  0.88697833  0.36697860  0.87711063    -0.24800
C2757       C  0.82503366  0.33522534  0.35219313    -0.11600
C2758       C  0.84689915  0.35058126  0.36597353     0.10900
C2759       C  0.86637540  0.36543072  0.34372182    -0.03400
C2760       C  0.86284260  0.36513717  0.30804493    -0.06200
C2761       C  0.84091350  0.34953759  0.29364770    -0.17000
C2762       C  0.82158150  0.33418967  0.31651641     0.02000
C2763       C  0.84873064  0.34947356  0.40400057     0.11900
C2764       C  0.89095956  0.38084911  0.35752531     0.62500
H2765       H  0.87768291  0.37681585  0.29100685     0.11900
C2766       C  0.79753503  0.31628659  0.30413266     0.54700
H2767       H  0.81063425  0.32370956  0.37004774     0.07700
C2768       C  0.84059173  0.36108152  0.42462293    -0.06100
C2769       C  0.84078846  0.35747755  0.46060639    -0.06800
C2770       C  0.84761622  0.34179380  0.47633998    -0.16400
C2771       C  0.85449714  0.32919488  0.45566062    -0.02000
C2772       C  0.85555827  0.33377528  0.41968451    -0.09500
C2773       C  0.83094188  0.37650957  0.40869201     0.64700
H2774       H  0.83493125  0.36641094  0.47689275     0.10200
C2775       C  0.85861287  0.30960495  0.47130404     0.63100
H2776       H  0.86061991  0.32426384  0.40330059     0.07600
F2777       F  0.78210023  0.30244990  0.33099524    -0.19900
F2778       F  0.80019887  0.30146554  0.28347710    -0.16100
F2779       F  0.78729379  0.32789784  0.28627695    -0.19600
F2780       F  0.89851575  0.36693436  0.37587380    -0.23000
F2781       F  0.89036629  0.39642979  0.37889001    -0.24500
F2782       F  0.90753236  0.39374026  0.33139864    -0.18500
F2783       F  0.86339157  0.29841625  0.44641737    -0.21000
F2784       F  0.83842710  0.29298969  0.48960370    -0.22100
F2785       F  0.87762095  0.31851304  0.49313736    -0.19300
F2786       F  0.82376997  0.38592662  0.43343138    -0.19400
F2787       F  0.81146198  0.36339655  0.38906384    -0.23200
F2788       F  0.84821711  0.39487745  0.38801011    -0.24800
C2789       C  0.88869282  0.24214306  0.06262467    -0.11600
C2790       C  0.91277574  0.25540002  0.05256240     0.10900
C2791       C  0.92603087  0.27913475  0.06066430    -0.03400
C2792       C  0.91474661  0.28866573  0.07916706    -0.06200
C2793       C  0.89049885  0.27563622  0.08884715    -0.17000
C2794       C  0.87724928  0.25179095  0.08079272     0.02000
C2795       C  0.92383388  0.24401804  0.03377701     0.11900
C2796       C  0.95182393  0.29457402  0.04890526     0.62500
H2797       H  0.92471176  0.30684872  0.08531629     0.11900
C2798       C  0.85098731  0.23685660  0.08989391     0.54700
H2799       H  0.87883885  0.22413962  0.05567978     0.07700
C2800       C  0.93203401  0.22974750  0.05134216    -0.06100
C2801       C  0.94443354  0.22143824  0.03261075    -0.06800
C2802       C  0.94803771  0.22617227  0.99687579    -0.16400
C2803       C  0.93888705  0.23954653  0.97901810    -0.02000
C2804       C  0.92682122  0.24821867  0.99788297    -0.09500
C2805       C  0.92743034  0.22313114  0.08965721     0.64700
H2806       H  0.95118050  0.21081638  0.04571134     0.10200
C2807       C  0.94269091  0.24537202  0.94049553     0.63100
H2808       H  0.91994776  0.25873915  0.98484399     0.07600
F2809       F  0.84765771  0.23438298  0.12518083    -0.19900
F2810       F  0.84139688  0.21454636  0.07845138    -0.16100
F2811       F  0.83879197  0.24745122  0.07482850    -0.19600
F2812       F  0.95333165  0.29677141  0.01341503    -0.23000
F2813       F  0.96527276  0.28468929  0.06153603    -0.24500
F2814       F  0.96155786  0.31696814  0.06011775    -0.18500
F2815       F  0.93117869  0.22495333  0.92366106    -0.21000
F2816       F  0.96674452  0.25662688  0.93244387    -0.22100
F2817       F  0.93393118  0.26000562  0.92853757    -0.19300
F2818       F  0.93719153  0.20942100  0.10178360    -0.19400
F2819       F  0.90322286  0.21038405  0.09641604    -0.23200
F2820       F  0.93716634  0.24318740  0.10742935    -0.24800
C2821       C  0.75625677  0.39963704  0.16846051    -0.11600
C2822       C  0.76408797  0.41962865  0.14537053     0.10900
C2823       C  0.78572607  0.42823385  0.12688687    -0.03400
C2824       C  0.79866545  0.41626961  0.13183153    -0.06200
C2825       C  0.79058155  0.39545316  0.15372808    -0.17000
C2826       C  0.76891087  0.38713026  0.17288356     0.02000
C2827       C  0.74931532  0.43130753  0.14074002     0.11900
C2828       C  0.79486151  0.44965193  0.10115787     0.62500
H2829       H  0.81525575  0.42313360  0.11763284     0.11900
C2830       C  0.75870199  0.36514660  0.19748916     0.54700
H2831       H  0.73976088  0.39367051  0.18258477     0.07700
C2832       C  0.72902918  0.42253088  0.11977243    -0.06100
C2833       C  0.71657597  0.43513815  0.11546799    -0.06800
C2834       C  0.72396378  0.45621845  0.13104869    -0.16400
C2835       C  0.74480041  0.46543455  0.15089553    -0.02000
C2836       C  0.75676952  0.45244801  0.15608517    -0.09500
C2837       C  0.72034865  0.39979991  0.10241841     0.64700
H2838       H  0.70054628  0.42827970  0.10057338     0.10200
C2839       C  0.75506024  0.48942513  0.16508622     0.63100
H2840       H  0.77239492  0.45891692  0.17182174     0.07600
F2841       F  0.75326657  0.34571804  0.17963589    -0.19900
F2842       F  0.73804157  0.36103138  0.21390416    -0.16100
F2843       F  0.77497263  0.36761284  0.22259188    -0.19600
F2844       F  0.80021631  0.46944780  0.11792626    -0.23000
F2845       F  0.77776662  0.44625823  0.07702202    -0.24500
F2846       F  0.81523166  0.45385302  0.08378678    -0.18500
F2847       F  0.74075249  0.48858471  0.19162579    -0.21000
F2848       F  0.75665083  0.50585773  0.13929394    -0.22100
F2849       F  0.77763629  0.49693461  0.17762921    -0.19300
F2850       F  0.70297473  0.39660277  0.07880109    -0.19400
F2851       F  0.71089195  0.38095163  0.12690391    -0.23200
F2852       F  0.73890979  0.39999623  0.08507620    -0.24800
C2853       C  0.64400975  0.25552023  0.15779408    -0.11600
C2854       C  0.65642324  0.24351079  0.15232675     0.10900
C2855       C  0.64361735  0.21893516  0.14930186    -0.03400
C2856       C  0.61864076  0.20736771  0.15063072    -0.06200
C2857       C  0.60596100  0.21954820  0.15348017    -0.17000
C2858       C  0.61896208  0.24417166  0.15736693     0.02000
C2859       C  0.68277281  0.25727203  0.14771700     0.11900
C2860       C  0.65622153  0.20505526  0.14346094     0.62500
H2861       H  0.60871830  0.18859956  0.14807553     0.11900
C2862       C  0.60680792  0.25882125  0.15869147     0.54700
H2863       H  0.65426356  0.27422502  0.16074724     0.07700
C2864       C  0.69385461  0.27086117  0.11668879    -0.06100
C2865       C  0.71886910  0.28242385  0.11347352    -0.06800
C2866       C  0.73292126  0.28018603  0.13977437    -0.16400
C2867       C  0.72151279  0.26525199  0.16984312    -0.02000
C2868       C  0.69678851  0.25524861  0.17400699    -0.09500
C2869       C  0.67930004  0.27316956  0.08719575     0.64700
H2870       H  0.72768650  0.29375807  0.09061883     0.10200
C2871       C  0.73399665  0.25796219  0.19743302     0.63100
H2872       H  0.68812080  0.24465515  0.19750625     0.07600
F2873       F  0.59341358  0.25610218  0.12963175    -0.19900
F2874       F  0.62293283  0.28256821  0.15971145    -0.16100
F2875       F  0.59236514  0.25169061  0.18782367    -0.19600
F2876       F  0.66888217  0.20477536  0.17220230    -0.23000
F2877       F  0.67163969  0.21520093  0.11538289    -0.24500
F2878       F  0.64037407  0.18196459  0.13724312    -0.18500
F2879       F  0.73404248  0.26782934  0.22752889    -0.21000
F2880       F  0.75705590  0.26425403  0.18839968    -0.22100
F2881       F  0.72172259  0.23372697  0.20350805    -0.19300
F2882       F  0.69328235  0.28500818  0.05816640    -0.19400
F2883       F  0.66837002  0.28551149  0.09672690    -0.23200
F2884       F  0.66212646  0.25111515  0.07856405    -0.24800
C2885       C  0.02569957  0.41868977  0.22199065    -0.11600
C2886       C  0.02168189  0.40179049  0.19883367     0.10900
C2887       C  0.04028629  0.39752522  0.19035249    -0.03400
C2888       C  0.06292875  0.41161509  0.20364750    -0.06200
C2889       C  0.06745335  0.42962460  0.22515908    -0.17000
C2890       C  0.04829325  0.43254820  0.23579425     0.02000
C2891       C  0.99798526  0.38955178  0.18294877     0.11900
C2892       C  0.03666017  0.37921389  0.16571032     0.62500
H2893       H  0.07773223  0.40958848  0.19563384     0.11900
C2894       C  0.05170795  0.45050964  0.26078067     0.54700
H2895       H  0.01101229  0.42133092  0.22845547     0.07700
C2896       C  0.97827935  0.37043200  0.20059660    -0.06100
C2897       C  0.95598335  0.36105260  0.18519303    -0.06800
C2898       C  0.95254676  0.37075915  0.15362230    -0.16400
C2899       C  0.97247037  0.38923499  0.13525076    -0.02000
C2900       C  0.99502153  0.39826669  0.15029134    -0.09500
C2901       C  0.98045621  0.36085405  0.23638877     0.64700
H2902       H  0.94055363  0.34693641  0.19895579     0.10200
C2903       C  0.96983627  0.39990056  0.10075331     0.63100
H2904       H  0.01046260  0.41284943  0.13726303     0.07600
F2905       F  0.03082859  0.45080961  0.26688330    -0.19900
F2906       F  0.06855589  0.47276809  0.24784311    -0.16100
F2907       F  0.05910042  0.44496314  0.29178423    -0.19600
F2908       F  0.03414325  0.38694040  0.13278876    -0.23000
F2909       F  0.01651815  0.35804598  0.17493845    -0.24500
F2910       F  0.05572559  0.37513629  0.16560359    -0.18500
F2911       F  0.95397843  0.40811721  0.10374243    -0.21000
F2912       F  0.96155826  0.38298441  0.07721463    -0.22100
F2913       F  0.99127047  0.41855142  0.08824580    -0.19300
F2914       F  0.95961880  0.34079823  0.24740130    -0.19400
F2915       F  0.98558384  0.37762029  0.25949061    -0.23200
F2916       F  0.99838846  0.35516462  0.23677575    -0.24800
loop_ 
_geom_bond_atom_site_label_1 
_geom_bond_atom_site_label_2 
_geom_bond_distance 
_geom_bond_site_symmetry_2 
_ccdc_geom_bond_type 
Zr1           O2   2.430       .  S
Zr1           O3   2.467       .  S
Zr1           O4   2.469       .  S
Zr1           O7   2.424       .  S
Zr1           O9   2.380       .  S
Zr1          O10   2.381       .  S
Zr1          O11   2.421       .  S
Zr1          O12   2.415       .  S
O2           H58   0.989       .  S
O2           H66   0.988       .  S
O3           C23   1.287       .  A
O4           C25   1.288       .  A
O5          Zr15   2.444       .  S
O5           C24   1.286       .  A
O6          Zr14   2.415       .  S
O6           C25   1.281       .  A
O7           C24   1.282       .  A
O8          Zr16   2.406       .  S
O8           C23   1.281       .  A
O9          Zr14   2.389       .  S
O9          Zr16   2.384       .  S
O10         Zr15   2.383       .  S
O10         Zr16   2.386       .  S
O10          H45   0.967       .  S
O11         Zr14   2.393       .  S
O11         Zr31   2.414       .  S
O11          H48   0.978       .  S
O12         Zr15   2.381       .  S
O12         Zr31   2.410       .  S
Zr13         O38   2.437       .  S
Zr13         O32   2.410       .  S
Zr13         O40   2.449       .  S
Zr13         O28   2.471       .  S
Zr13         O19   2.400       .  S
Zr13         O20   2.404       .  S
Zr13         O21   2.378       .  S
Zr13         O22   2.390       .  S
Zr14         O33   2.441       .  S
Zr14         O26   2.435       .  S
Zr14         O27   2.394       .  S
Zr14         O20   2.395       .  S
Zr14         O21   2.388       .  S
Zr15         O17   2.435       .  S
Zr15         O39   2.436       .  S
Zr15         O41   2.416       .  S
Zr15         O19   2.403       .  S
Zr15         O22   2.387       .  S
Zr16         O42   2.435       .  S
Zr16         O43   2.436       .  S
Zr16         O18   2.437       .  S
Zr16         O19   2.387       .  S
Zr16         O20   2.393       .  S
O17          H54   0.990       .  S
O18          H49   0.990       .  S
O18          H63   0.990       .  S
O20          H46   0.967       .  S
O21         Zr31   2.361       .  S
O22         Zr31   2.372       .  S
O22          H47   0.968       .  S
C23        C2825   1.511       .  S
C24        C2866   1.486       .  S
C25        C2761   1.506       .  S
O26          H62   0.990       .  S
O27          C29   1.279       .  A
O28          C29   1.291       .  A
C29        C2898   1.485       .  S
O30         Zr31   2.438       .  S
O30          H59   0.990       .  S
Zr31         O34   2.439       .  S
Zr31         O35   2.437       .  S
Zr31         O36   2.469       .  S
O32          C37   1.281       .  A
O33          H50   0.990       .  S
O33          H65   0.990       .  S
O34          H51   0.990       .  S
O35          H55   0.989       .  S
O35          H64   0.990       .  S
O36          C37   1.289       .  A
C37        C2793   1.495       .  S
O38          H57   0.990       .  S
O38          H61   0.990       .  S
O39          H53   0.990       .  S
O39          H60   0.990       .  S
O40          C44   1.289       .  A
O41          C44   1.281       .  A
O42          H52   0.990       .  S
O43          H56   0.990       .  S
C44        C2738   1.478   1_554  S
Zr67         O68   2.440       .  S
Zr67         O69   2.452       .  S
Zr67         O70   2.471       .  S
Zr67         O73   2.422       .  S
Zr67         O75   2.377       .  S
Zr67         O76   2.387       .  S
Zr67         O77   2.405       .  S
Zr67         O78   2.415       .  S
O68         H124   0.990       .  S
O68         H132   0.990       .  S
O69          C89   1.286       .  A
O70          C91   1.290       .  A
O71         Zr81   2.465       .  S
O71          C90   1.290       .  A
O72         Zr80   2.391       .  S
O72          C91   1.276       .  A
O73          C90   1.285       .  A
O74         Zr82   2.436       .  S
O74          C89   1.285       .  A
O75         Zr80   2.392       .  S
O75         Zr82   2.378       .  S
O76         Zr81   2.378       .  S
O76         Zr82   2.377       .  S
O76         H111   0.965       .  S
O77         Zr80   2.391       .  S
O77         Zr97   2.403       .  S
O77         H114   0.966       .  S
O78         Zr81   2.391       .  S
O78         Zr97   2.398       .  S
Zr79        O104   2.438       .  S
Zr79         O98   2.429       .  S
Zr79        O106   2.444       .  S
Zr79         O94   2.477       .  S
Zr79         O85   2.413       .  S
Zr79         O86   2.405       .  S
Zr79         O87   2.373       .  S
Zr79         O88   2.396       .  S
Zr80         O99   2.440       .  S
Zr80         O92   2.434       .  S
Zr80         O93   2.399       .  S
Zr80         O86   2.385       .  S
Zr80         O87   2.381       .  S
Zr81         O83   2.436       .  S
Zr81        O105   2.439       .  S
Zr81        O107   2.438       .  S
Zr81         O85   2.406       .  S
Zr81         O88   2.391       .  S
Zr82        O108   2.435       .  S
Zr82        O109   2.436       .  S
Zr82         O84   2.437       .  S
Zr82         O85   2.400       .  S
Zr82         O86   2.403       .  S
O83         H120   0.990       .  S
O84         H115   0.990       .  S
O84         H129   0.990       .  S
O86         H112   0.966       .  S
O87         Zr97   2.371       .  S
O88         Zr97   2.374       .  S
O88         H113   0.966       .  S
C89        C2633   1.479       .  S
C90        C2674   1.499       .  S
C91        C2729   1.482       .  S
O92         H128   0.990       .  S
O93          C95   1.279       .  A
O94          C95   1.292       .  A
C95        C2697   1.492       .  S
O96         Zr97   2.435       .  S
O96         H125   0.990       .  S
Zr97        O100   2.434       .  S
Zr97        O101   2.438       .  S
Zr97        O102   2.442       .  S
O98         C103   1.285       .  A
O99         H116   0.990       .  S
O99         H131   0.990       .  S
O100        H117   0.990       .  S
O101        H121   0.989       .  S
O101        H130   0.990       .  S
O102        C103   1.284       .  A
C103       C2601   1.492       .  S
O104        H123   0.990       .  S
O104        H127   0.990       .  S
O105        H119   0.990       .  S
O105        H126   0.990       .  S
O106        C110   1.286       .  A
O107        C110   1.285       .  A
O108        H118   0.990       .  S
O109        H122   0.990       .  S
C110       C2770   1.481       .  S
Zr133       O134   2.443       .  S
Zr133       O135   2.466       .  S
Zr133       O136   2.415       .  S
Zr133       O139   2.383       .  S
Zr133       O141   2.370       .  S
Zr133       O142   2.366       .  S
Zr133       O143   2.409       .  S
Zr133       O144   2.411       .  S
O134        H190   0.990       .  S
O134        H198   0.990       .  S
O135        C155   1.289       .  A
O136        C157   1.279       .  A
O137       Zr147   2.473       .  S
O137        C156   1.290       .  A
O138       Zr146   2.428       .  S
O138        C157   1.280       .  A
O139        C156   1.276       .  A
O140       Zr148   2.411       .  S
O140        C155   1.282       .  A
O141       Zr146   2.387       .  S
O141       Zr148   2.383       .  S
O142       Zr147   2.375       .  S
O142       Zr148   2.380       .  S
O142        H177   0.964       .  S
O143       Zr146   2.392       .  S
O143       Zr163   2.420       .  S
O143        H180   0.966       .  S
O144       Zr147   2.380       .  S
O144       Zr163   2.411       .  S
Zr145       O170   2.438       .  S
Zr145       O164   2.409       .  S
Zr145       O172   2.428       .  S
Zr145       O160   2.468       .  S
Zr145       O151   2.401       .  S
Zr145       O152   2.395       .  S
Zr145       O153   2.374       .  S
Zr145       O154   2.396       .  S
Zr146       O165   2.439       .  S
Zr146       O158   2.435       .  S
Zr146       O159   2.394       .  S
Zr146       O152   2.394       .  S
Zr146       O153   2.394       .  S
Zr147       O149   2.434       .  S
Zr147       O171   2.439       .  S
Zr147       O173   2.416       .  S
Zr147       O151   2.409       .  S
Zr147       O154   2.397       .  S
Zr148       O174   2.436       .  S
Zr148       O175   2.435       .  S
Zr148       O150   2.436       .  S
Zr148       O151   2.384       .  S
Zr148       O152   2.393       .  S
O149        H186   0.990       .  S
O150        H181   0.990       .  S
O150        H195   0.990       .  S
O152        H178   0.967       .  S
O153       Zr163   2.366       .  S
O154       Zr163   2.364       .  S
O154        H179   0.966       .  S
C155       C2857   1.498       .  S
C156       C2514   1.503       .  S
C157       C2482   1.472       .  S
O158        H194   0.990       .  S
O159        C161   1.279       .  A
O160        C161   1.291       .  A
C161       C2537   1.481       .  S
O162       Zr163   2.435       .  S
O162        H191   0.990       .  S
Zr163       O166   2.435       .  S
Zr163       O167   2.439       .  S
Zr163       O168   2.482       .  S
O164        C169   1.279       .  A
O165        H182   0.990       .  S
O165        H197   0.990       .  S
O166        H183   0.990       .  S
O167        H187   0.990       .  S
O167        H196   0.989       .  S
O168        C169   1.292       .  A
C169       C2569   1.493       .  S
O170        H189   0.990       .  S
O170        H193   0.990       .  S
O171        H185   0.990       .  S
O171        H192   0.989       .  S
O172        C176   1.286   1_554  A
O173        C176   1.281   1_554  A
O174        H184   0.990       .  S
O175        H188   0.990       .  S
C176       C2441   1.479       .  S
Zr199       O200   2.442       .  S
Zr199       O201   2.460       .  S
Zr199       O202   2.416       .  S
Zr199       O205   2.379       .  S
Zr199       O207   2.372       .  S
Zr199       O208   2.372       .  S
Zr199       O209   2.404       .  S
Zr199       O210   2.407       .  S
O200        H256   0.990       .  S
O200        H264   0.990       .  S
O201        C221   1.289       .  A
O202        C223   1.280       .  A
O203       Zr213   2.474       .  S
O203        C222   1.290       .  A
O204       Zr212   2.429       .  S
O204        C223   1.282       .  A
O205        C222   1.276       .  A
O206       Zr214   2.411       .  S
O206        C221   1.280       .  A
O207       Zr212   2.382       .  S
O207       Zr214   2.378       .  S
O208       Zr213   2.368       .  S
O208       Zr214   2.379       .  S
O208        H243   0.965       .  S
O209       Zr212   2.388       .  S
O209       Zr229   2.410       .  S
O209        H246   0.966       .  S
O210       Zr213   2.383       .  S
O210       Zr229   2.409       .  S
Zr211       O236   2.441       .  S
Zr211       O230   2.419       .  S
Zr211       O238   2.426       .  S
Zr211       O226   2.445       .  S
Zr211       O217   2.404       .  S
Zr211       O218   2.405       .  S
Zr211       O219   2.381       .  S
Zr211       O220   2.389       .  S
Zr212       O231   2.438       .  S
Zr212       O224   2.436       .  S
Zr212       O225   2.404       .  S
Zr212       O218   2.393       .  S
Zr212       O219   2.393       .  S
Zr213       O215   2.435       .  S
Zr213       O237   2.436       .  S
Zr213       O239   2.425       .  S
Zr213       O217   2.411       .  S
Zr213       O220   2.395       .  S
Zr214       O240   2.434       .  S
Zr214       O241   2.435       .  S
Zr214       O216   2.438       .  S
Zr214       O217   2.398       .  S
Zr214       O218   2.388       .  S
O215        H252   0.990       .  S
O216        H247   0.990       .  S
O216        H261   0.990       .  S
O218        H244   0.966       .  S
O219       Zr229   2.363       .  S
O220       Zr229   2.369       .  S
O220        H245   0.966       .  S
C221       C2665   1.475       .  S
C222       C2345   1.492       .  S
C223       C2450   1.471       .  S
O224        H260   0.990       .  S
O225        C227   1.281       .  A
O226        C227   1.286       .  A
C227       C2386   1.478       .  S
O228       Zr229   2.434       .  S
O228        H257   0.990       .  S
Zr229       O232   2.436       .  S
Zr229       O233   2.437       .  S
Zr229       O234   2.466       .  S
O230        C235   1.282       .  A
O231        H248   0.990       .  S
O231        H263   0.990       .  S
O232        H249   0.990       .  S
O233        H253   0.990       .  S
O233        H262   0.990       .  S
O234        C235   1.290       .  A
C235       C2418   1.491       .  S
O236        H255   0.990       .  S
O236        H259   0.989       .  S
O237        H251   0.990       .  S
O237        H258   0.990       .  S
O238        C242   1.285       .  A
O239        C242   1.283       .  A
O240        H250   0.990       .  S
O241        H254   0.990       .  S
C242       C2473   1.484       .  S
Zr265       O266   2.444       .  S
Zr265       O267   2.464       .  S
Zr265       O268   2.467       .  S
Zr265       O271   2.421       .  S
Zr265       O273   2.381       .  S
Zr265       O274   2.385       .  S
Zr265       O275   2.413       .  S
Zr265       O276   2.416       .  S
O266        H322   0.991       .  S
O266        H330   0.990       .  S
O267        C287   1.288       .  A
O268        C289   1.287       .  A
O269       Zr279   2.451       .  S
O269        C288   1.287       .  A
O270       Zr278   2.410       .  S
O270        C289   1.278       .  A
O271        C288   1.281       .  A
O272       Zr280   2.403       .  S
O272        C287   1.278       .  A
O273       Zr278   2.393       .  S
O273       Zr280   2.385       .  S
O274       Zr279   2.363       .  S
O274       Zr280   2.387       .  S
O274        H309   0.965       .  S
O275       Zr278   2.396       .  S
O275       Zr295   2.414       .  S
O275        H312   0.963       .  S
O276       Zr279   2.390       .  S
O276       Zr295   2.407       .  S
Zr277       O302   2.442       .  S
Zr277       O296   2.419       .  S
Zr277       O304   2.465       .  S
Zr277       O292   2.488       .  S
Zr277       O283   2.401       .  S
Zr277       O284   2.403       .  S
Zr277       O285   2.375       .  S
Zr277       O286   2.398       .  S
Zr278       O297   2.440       .  S
Zr278       O290   2.436       .  S
Zr278       O291   2.389       .  S
Zr278       O284   2.393       .  S
Zr278       O285   2.390       .  S
Zr279       O281   2.435       .  S
Zr279       O303   2.437       .  S
Zr279       O305   2.412       .  S
Zr279       O283   2.399       .  S
Zr279       O286   2.389       .  S
Zr280       O306   2.435       .  S
Zr280       O307   2.436       .  S
Zr280       O282   2.435       .  S
Zr280       O283   2.384       .  S
Zr280       O284   2.388       .  S
O281        H318   0.990       .  S
O282        H313   0.990       .  S
O282        H327   0.990       .  S
O284        H310   0.966       .  S
O285       Zr295   2.362       .  S
O286       Zr295   2.369       .  S
O286        H311   0.964       .  S
C287       C2505   1.475       .  S
C288       C2834   1.484       .  S
C289       C2249   1.478       .  S
O290        H326   0.990       .  S
O291        C293   1.277       .  A
O292        C293   1.295       .  A
C293       C2281   1.484       .  S
O294       Zr295   2.435       .  S
O294        H323   0.990       .  S
Zr295       O298   2.437       .  S
Zr295       O299   2.437       .  S
Zr295       O300   2.457       .  S
O296        C301   1.282       .  A
O297        H314   0.990       .  S
O297        H329   0.990       .  S
O298        H315   0.990       .  S
O299        H319   0.989       .  S
O299        H328   0.990       .  S
O300        C301   1.288       .  A
C301       C2313   1.476       .  S
O302        H321   0.990       .  S
O302        H325   0.990       .  S
O303        H317   0.990       .  S
O303        H324   0.990       .  S
O304        C308   1.291       .  A
O305        C308   1.282       .  A
O306        H316   0.990       .  S
O307        H320   0.990       .  S
C308       C2226   1.487   1_554  S
Zr331       O332   2.432       .  S
Zr331       O333   2.454       .  S
Zr331       O334   2.450       .  S
Zr331       O337   2.399       .  S
Zr331       O339   2.376       .  S
Zr331       O340   2.376       .  S
Zr331       O341   2.407       .  S
Zr331       O342   2.417       .  S
O332        H388   0.990       .  S
O332        H396   0.989       .  S
O333        C353   1.287       .  A
O334        C355   1.286       .  A
O335       Zr345   2.476       .  S
O335        C354   1.293       .  A
O336       Zr344   2.420       .  S
O336        C355   1.282       .  A
O337        C354   1.279       .  A
O338       Zr346   2.417       .  S
O338        C353   1.281       .  A
O339       Zr344   2.382       .  S
O339       Zr346   2.382       .  S
O340       Zr345   2.359       .  S
O340       Zr346   2.380       .  S
O340        H375   0.964       .  S
O341       Zr344   2.386       .  S
O341       Zr361   2.419       .  S
O341        H378   0.966       .  S
O342       Zr345   2.381       .  S
O342       Zr361   2.416       .  S
Zr343       O368   2.434       .  S
Zr343       O362   2.417       .  S
Zr343       O370   2.447       .  S
Zr343       O358   2.471       .  S
Zr343       O349   2.404       .  S
Zr343       O350   2.404       .  S
Zr343       O351   2.371       .  S
Zr343       O352   2.392       .  S
Zr344       O363   2.439       .  S
Zr344       O356   2.437       .  S
Zr344       O357   2.388       .  S
Zr344       O350   2.394       .  S
Zr344       O351   2.387       .  S
Zr345       O347   2.434       .  S
Zr345       O369   2.437       .  S
Zr345       O371   2.413       .  S
Zr345       O349   2.408       .  S
Zr345       O352   2.388       .  S
Zr346       O372   2.436       .  S
Zr346       O373   2.437       .  S
Zr346       O348   2.437       .  S
Zr346       O349   2.391       .  S
Zr346       O350   2.397       .  S
O347        H384   0.990       .  S
O348        H379   0.990       .  S
O348        H393   0.990       .  S
O350        H376   0.967       .  S
O351       Zr361   2.357       .  S
O352       Zr361   2.367       .  S
O352        H377   0.966       .  S
C353       C2354   1.471       .  S
C354       C2642   1.495       .  S
C355       C2217   1.485       .  S
O356        H392   0.990       .  S
O357        C359   1.277       .  A
O358        C359   1.291       .  A
C359       C2162   1.477       .  S
O360       Zr361   2.438       .  S
O360        H389   0.990       .  S
Zr361       O364   2.437       .  S
Zr361       O365   2.438       .  S
Zr361       O366   2.478       .  S
O362        C367   1.281       .  A
O363        H380   0.990       .  S
O363        H395   0.990       .  S
O364        H381   0.990       .  S
O365        H385   0.990       .  S
O365        H394   0.990       .  S
O366        C367   1.292       .  A
C367       C2185   1.487       .  S
O368        H387   0.990       .  S
O368        H391   0.990       .  S
O369        H383   0.990       .  S
O369        H390   0.990       .  S
O370        C374   1.287       .  A
O371        C374   1.284       .  A
O372        H382   0.990       .  S
O373        H386   0.990       .  S
C374       C2258   1.503       .  S
Zr397       O398   2.439       .  S
Zr397       O399   2.452       .  S
Zr397       O400   2.419       .  S
Zr397       O403   2.393       .  S
Zr397       O405   2.374       .  S
Zr397       O406   2.372       .  S
Zr397       O407   2.407       .  S
Zr397       O408   2.415       .  S
O398        H454   0.991       .  S
O398        H462   0.990       .  S
O399        C419   1.286       .  A
O400        C421   1.282       .  A
O401       Zr411   2.493       .  S
O401        C420   1.294       .  A
O402       Zr410   2.421       .  S
O402        C421   1.280       .  A
O403        C420   1.278       .  A
O404       Zr412   2.415       .  S
O404        C419   1.281       .  A
O405       Zr410   2.388       .  S
O405       Zr412   2.382       .  S
O406       Zr411   2.373       .  S
O406       Zr412   2.379       .  S
O406        H441   0.965       .  S
O407       Zr410   2.383       .  S
O407       Zr427   2.419       .  S
O407        H444   0.966       .  S
O408       Zr411   2.383       .  S
O408       Zr427   2.415       .  S
Zr409       O434   2.439       .  S
Zr409       O428   2.409       .  S
Zr409       O436   2.426       .  S
Zr409       O424   2.460       .  S
Zr409       O415   2.394       .  S
Zr409       O416   2.397       .  S
Zr409       O417   2.372       .  S
Zr409       O418   2.398       .  S
Zr410       O429   2.438       .  S
Zr410       O422   2.433       .  S
Zr410       O423   2.399       .  S
Zr410       O416   2.396       .  S
Zr410       O417   2.384       .  S
Zr411       O413   2.436       .  S
Zr411       O435   2.438       .  S
Zr411       O437   2.431       .  S
Zr411       O415   2.409       .  S
Zr411       O418   2.404       .  S
Zr412       O438   2.435       .  S
Zr412       O439   2.435       .  S
Zr412       O414   2.435       .  S
Zr412       O415   2.376       .  S
Zr412       O416   2.397       .  S
O413        H450   0.989       .  S
O414        H445   0.990       .  S
O414        H459   0.990       .  S
O416        H442   0.967       .  S
O417       Zr427   2.365       .  S
O418       Zr427   2.373       .  S
O418        H443   0.966       .  S
C419       C2121   1.472       .  S
C420       C2089   1.505       .  S
C421       C2025   1.491       .  S
O422        H458   0.990       .  S
O423        C425   1.279       .  A
O424        C425   1.288       .  A
C425       C2546   1.479       .  S
O426       Zr427   2.440       .  S
O426        H455   0.990       .  S
Zr427       O430   2.437       .  S
Zr427       O431   2.439       .  S
Zr427       O432   2.473       .  S
O428        C433   1.279       .  A
O429        H446   0.990       .  S
O429        H461   0.990       .  S
O430        H447   0.990       .  S
O431        H451   0.990       .  S
O431        H460   0.990       .  S
O432        C433   1.291       .  A
C433       C2066   1.488       .  S
O434        H453   0.990       .  S
O434        H457   0.990       .  S
O435        H449   0.990       .  S
O435        H456   0.990       .  S
O436        C440   1.285       .  A
O437        C440   1.284       .  A
O438        H448   0.990       .  S
O439        H452   0.989       .  S
C440       C1993   1.487       .  S
Zr463       O464   2.443       .  S
Zr463       O465   2.470       .  S
Zr463       O466   2.432       .  S
Zr463       O469   2.402       .  S
Zr463       O471   2.378       .  S
Zr463       O472   2.375       .  S
Zr463       O473   2.409       .  S
Zr463       O474   2.410       .  S
O464        H520   0.990       .  S
O464        H528   0.991       .  S
O465        C485   1.290       .  A
O466        C487   1.283       .  A
O467       Zr477   2.458       .  S
O467        C486   1.287       .  A
O468       Zr476   2.419       .  S
O468        C487   1.281       .  A
O469        C486   1.281       .  A
O470       Zr478   2.398       .  S
O470        C485   1.279       .  A
O471       Zr476   2.387       .  S
O471       Zr478   2.381       .  S
O472       Zr477   2.373       .  S
O472       Zr478   2.385       .  S
O472        H507   0.965       .  S
O473       Zr476   2.385       .  S
O473       Zr493   2.412       .  S
O473        H510   0.966       .  S
O474       Zr477   2.381       .  S
O474       Zr493   2.411       .  S
Zr475       O500   2.435       .  S
Zr475       O494   2.411       .  S
Zr475       O502   2.430       .  S
Zr475       O490   2.445       .  S
Zr475       O481   2.391       .  S
Zr475       O482   2.402       .  S
Zr475       O483   2.373       .  S
Zr475       O484   2.388       .  S
Zr476       O495   2.438       .  S
Zr476       O488   2.436       .  S
Zr476       O489   2.406       .  S
Zr476       O482   2.394       .  S
Zr476       O483   2.386       .  S
Zr477       O479   2.433       .  S
Zr477       O501   2.440       .  S
Zr477       O503   2.414       .  S
Zr477       O481   2.399       .  S
Zr477       O484   2.393       .  S
Zr478       O504   2.436       .  S
Zr478       O505   2.435       .  S
Zr478       O480   2.438       .  S
Zr478       O481   2.382       .  S
Zr478       O482   2.394       .  S
O479        H516   0.990       .  S
O480        H511   0.990       .  S
O480        H525   0.990       .  S
O482        H508   0.967       .  S
O483       Zr493   2.360       .  S
O484       Zr493   2.369       .  S
O484        H509   0.967       .  S
C485       C1961   1.489       .  S
C486       C1929   1.506       .  S
C487       C2002   1.474       .  S
O488        H524   0.990       .  S
O489        C491   1.280       .  A
O490        C491   1.286       .  A
C491       C2377   1.473       .  S
O492       Zr493   2.440       .  S
O492        H521   0.990       .  S
Zr493       O496   2.436       .  S
Zr493       O497   2.436       .  S
Zr493       O498   2.485       .  S
O494        C499   1.282       .  A
O495        H512   0.990       .  S
O495        H527   0.990       .  S
O496        H513   0.990       .  S
O497        H517   0.990       .  S
O497        H526   0.990       .  S
O498        C499   1.293       .  A
C499       C1906   1.518       .  S
O500        H519   0.990       .  S
O500        H523   0.990       .  S
O501        H515   0.990       .  S
O501        H522   0.989       .  S
O502        C506   1.285       .  A
O503        C506   1.282       .  A
O504        H514   0.990       .  S
O505        H518   0.990       .  S
C506       C2034   1.461       .  S
Zr529       O530   2.434       .  S
Zr529       O531   2.454       .  S
Zr529       O532   2.441       .  S
Zr529       O535   2.389       .  S
Zr529       O537   2.378       .  S
Zr529       O538   2.380       .  S
Zr529       O539   2.404       .  S
Zr529       O540   2.409       .  S
O530        H586   0.990       .  S
O530        H594   0.989       .  S
O531        C551   1.288       .  A
O532        C553   1.285       .  A
O533       Zr543   2.485       .  S
O533        C552   1.293       .  A
O534       Zr542   2.401       .  S
O534        C553   1.279       .  A
O535        C552   1.278       .  A
O536       Zr544   2.416       .  S
O536        C551   1.281       .  A
O537       Zr542   2.390       .  S
O537       Zr544   2.378       .  S
O538       Zr543   2.359       .  S
O538       Zr544   2.376       .  S
O538        H573   0.964       .  S
O539       Zr542   2.385       .  S
O539       Zr559   2.407       .  S
O539        H576   0.966       .  S
O540       Zr543   2.381       .  S
O540       Zr559   2.407       .  S
Zr541       O566   2.434       .  S
Zr541       O560   2.412       .  S
Zr541       O568   2.449       .  S
Zr541       O556   2.476       .  S
Zr541       O547   2.404       .  S
Zr541       O548   2.398       .  S
Zr541       O549   2.381       .  S
Zr541       O550   2.393       .  S
Zr542       O561   2.439       .  S
Zr542       O554   2.436       .  S
Zr542       O555   2.404       .  S
Zr542       O548   2.392       .  S
Zr542       O549   2.384       .  S
Zr543       O545   2.435       .  S
Zr543       O567   2.435       .  S
Zr543       O569   2.415       .  S
Zr543       O547   2.410       .  S
Zr543       O550   2.391       .  S
Zr544       O570   2.435       .  S
Zr544       O571   2.435       .  S
Zr544       O546   2.436       .  S
Zr544       O547   2.392       .  S
Zr544       O548   2.391       .  S
O545        H582   0.990       .  S
O546        H577   0.990       .  S
O546        H591   0.990       .  S
O548        H574   0.966       .  S
O549       Zr559   2.374       .  S
O550       Zr559   2.370       .  S
O550        H575   0.966       .  S
C551       C2098   1.473       .  S
C552       C1833   1.494       .  S
C553       C1810   1.472       .  S
O554        H590   0.990       .  S
O555        C557   1.281       .  A
O556        C557   1.292       .  A
C557       C2889   1.487       .  S
O558       Zr559   2.436       .  S
O558        H587   0.990       .  S
Zr559       O562   2.436       .  S
Zr559       O563   2.440       .  S
Zr559       O564   2.453       .  S
O560        C565   1.280       .  A
O561        H578   0.990       .  S
O561        H593   0.990       .  S
O562        H579   0.990       .  S
O563        H583   0.990       .  S
O563        H592   0.990       .  S
O564        C565   1.288       .  A
C565       C1874   1.485       .  S
O566        H585   0.989       .  S
O566        H589   0.990       .  S
O567        H581   0.990       .  S
O567        H588   0.990       .  S
O568        C572   1.288       .  A
O569        C572   1.284       .  A
O570        H580   0.990       .  S
O571        H584   0.990       .  S
C572       C1769   1.492       .  S
Zr595       O596   2.444       .  S
Zr595       O597   2.467       .  S
Zr595       O598   2.451       .  S
Zr595       O601   2.419       .  S
Zr595       O603   2.384       .  S
Zr595       O604   2.381       .  S
Zr595       O605   2.423       .  S
Zr595       O606   2.415       .  S
O596        H652   0.991       .  S
O596        H660   0.991       .  S
O597        C617   1.288       .  A
O598        C619   1.283       .  A
O599       Zr609   2.467       .  S
O599        C618   1.290       .  A
O600       Zr608   2.419       .  S
O600        C619   1.279       .  A
O601        C618   1.281       .  A
O602       Zr610   2.397       .  S
O602        C617   1.276       .  A
O603       Zr608   2.396       .  S
O603       Zr610   2.391       .  S
O604       Zr609   2.370       .  S
O604       Zr610   2.388       .  S
O604        H639   0.965       .  S
O605       Zr608   2.400       .  S
O605       Zr625   2.418       .  S
O605        H642   0.964       .  S
O606       Zr609   2.381       .  S
O606       Zr625   2.410       .  S
Zr607       O632   2.440       .  S
Zr607       O626   2.405       .  S
Zr607       O634   2.430       .  S
Zr607       O622   2.472       .  S
Zr607       O613   2.401       .  S
Zr607       O614   2.396       .  S
Zr607       O615   2.372       .  S
Zr607       O616   2.398       .  S
Zr608       O627   2.439       .  S
Zr608       O620   2.436       .  S
Zr608       O621   2.398       .  S
Zr608       O614   2.395       .  S
Zr608       O615   2.391       .  S
Zr609       O611   2.435       .  S
Zr609       O633   2.438       .  S
Zr609       O635   2.405       .  S
Zr609       O613   2.406       .  S
Zr609       O616   2.394       .  S
Zr610       O636   2.439       .  S
Zr610       O637   2.436       .  S
Zr610       O612   2.435       .  S
Zr610       O613   2.380       .  S
Zr610       O614   2.394       .  S
O611        H648   0.990       .  S
O612        H643   0.990       .  S
O612        H657   0.990       .  S
O614        H640   0.966       .  S
O615       Zr625   2.362       .  S
O616       Zr625   2.360       .  S
O616        H641   0.966       .  S
C617       C1938   1.475       .  S
C618       C1705   1.490       .  S
C619       C1778   1.472       .  S
O620        H656   0.990       .  S
O621        C623   1.277       .  A
O622        C623   1.292       .  A
C623       C2706   1.482       .  S
O624       Zr625   2.436       .  S
O624        H653   0.990       .  S
Zr625       O628   2.435       .  S
Zr625       O629   2.437       .  S
Zr625       O630   2.477       .  S
O626        C631   1.280       .  A
O627        H644   0.990       .  S
O627        H659   0.988       .  S
O628        H645   0.990       .  S
O629        H649   0.990       .  S
O629        H658   0.990       .  S
O630        C631   1.290       .  A
C631       C1737   1.512       .  S
O632        H651   0.990       .  S
O632        H655   0.990       .  S
O633        H647   0.990       .  S
O633        H654   0.990       .  S
O634        C638   1.284       .  A
O635        C638   1.281       .  A
O636        H646   0.990       .  S
O637        H650   0.989       .  S
C638       C1801   1.466       .  S
Zr661       O662   2.438       .  S
Zr661       O663   2.442       .  S
Zr661       O664   2.458       .  S
Zr661       O667   2.403       .  S
Zr661       O669   2.375       .  S
Zr661       O670   2.387       .  S
Zr661       O671   2.402       .  S
Zr661       O672   2.416       .  S
O662        H718   0.990       .  S
O662        H726   0.990       .  S
O663        C683   1.285       .  A
O664        C685   1.289       .  A
O665       Zr675   2.467       .  S
O665        C684   1.290       .  A
O666       Zr674   2.407       .  S
O666        C685   1.277       .  A
O667        C684   1.281       .  A
O668       Zr676   2.430       .  S
O668        C683   1.284       .  A
O669       Zr674   2.386       .  S
O669       Zr676   2.378       .  S
O670       Zr675   2.368       .  S
O670       Zr676   2.374       .  S
O670        H705   0.965       .  S
O671       Zr674   2.388       .  S
O671       Zr691   2.410       .  S
O671        H708   0.967       .  S
O672       Zr675   2.391       .  S
O672       Zr691   2.405       .  S
Zr673       O698   2.438       .  S
Zr673       O692   2.411       .  S
Zr673       O700   2.448       .  S
Zr673       O688   2.476       .  S
Zr673       O679   2.409       .  S
Zr673       O680   2.400       .  S
Zr673       O681   2.374       .  S
Zr673       O682   2.396       .  S
Zr674       O693   2.439       .  S
Zr674       O686   2.434       .  S
Zr674       O687   2.389       .  S
Zr674       O680   2.389       .  S
Zr674       O681   2.383       .  S
Zr675       O677   2.436       .  S
Zr675       O699   2.437       .  S
Zr675       O701   2.426       .  S
Zr675       O679   2.406       .  S
Zr675       O682   2.390       .  S
Zr676       O702   2.435       .  S
Zr676       O703   2.436       .  S
Zr676       O678   2.435       .  S
Zr676       O679   2.396       .  S
Zr676       O680   2.399       .  S
O677        H714   0.989       .  S
O678        H709   0.990       .  S
O678        H723   0.990       .  S
O680        H706   0.966       .  S
O681       Zr691   2.368       .  S
O682       Zr691   2.374       .  S
O682        H707   0.964       .  S
C683       C1842   1.473       .  S
C684       C2130   1.493       .  S
C685       C1641   1.496       .  S
O686        H722   0.989       .  S
O687        C689   1.278       .  A
O688        C689   1.292       .  A
C689       C2290   1.488       .  S
O690       Zr691   2.436       .  S
O690        H719   0.990       .  S
Zr691       O694   2.435       .  S
Zr691       O695   2.439       .  S
Zr691       O696   2.449       .  S
O692        C697   1.279       .  A
O693        H710   0.990       .  S
O693        H725   0.990       .  S
O694        H711   0.990       .  S
O695        H715   0.990       .  S
O695        H724   0.990       .  S
O696        C697   1.287       .  A
C697       C1673   1.486       .  S
O698        H717   0.990       .  S
O698        H721   0.990       .  S
O699        H713   0.990       .  S
O699        H720   0.990       .  S
O700        C704   1.289       .  A
O701        C704   1.282       .  A
O702        H712   0.990       .  S
O703        H716   0.990       .  S
C704       C1609   1.491       .  S
Zr727       O728   2.438       .  S
Zr727       O729   2.494       .  S
Zr727       O730   2.452       .  S
Zr727       O733   2.422       .  S
Zr727       O735   2.379       .  S
Zr727       O736   2.375       .  S
Zr727       O737   2.429       .  S
Zr727       O738   2.418       .  S
O728        H784   0.989       .  S
O728        H792   0.990       .  S
O729        C749   1.292       .  A
O730        C751   1.284       .  A
O731       Zr741   2.447       .  S
O731        C750   1.287       .  A
O732       Zr740   2.411       .  S
O732        C751   1.279       .  A
O733        C750   1.282       .  A
O734       Zr742   2.383       .  S
O734        C749   1.276       .  A
O735       Zr740   2.395       .  S
O735       Zr742   2.381       .  S
O736       Zr741   2.382       .  S
O736       Zr742   2.386       .  S
O736        H771   0.964       .  S
O737       Zr740   2.391       .  S
O737       Zr757   2.415       .  S
O737        H774   0.965       .  S
O738       Zr741   2.379       .  S
O738       Zr757   2.405       .  S
Zr739       O764   2.437       .  S
Zr739       O758   2.418       .  S
Zr739       O766   2.452       .  S
Zr739       O754   2.472       .  S
Zr739       O745   2.390       .  S
Zr739       O746   2.400       .  S
Zr739       O747   2.383       .  S
Zr739       O748   2.399       .  S
Zr740       O759   2.442       .  S
Zr740       O752   2.435       .  S
Zr740       O753   2.392       .  S
Zr740       O746   2.392       .  S
Zr740       O747   2.389       .  S
Zr741       O743   2.436       .  S
Zr741       O765   2.440       .  S
Zr741       O767   2.410       .  S
Zr741       O745   2.396       .  S
Zr741       O748   2.395       .  S
Zr742       O768   2.434       .  S
Zr742       O769   2.437       .  S
Zr742       O744   2.437       .  S
Zr742       O745   2.375       .  S
Zr742       O746   2.386       .  S
O743        H780   0.990       .  S
O744        H775   0.990       .  S
O744        H789   0.990       .  S
O746        H772   0.966       .  S
O747       Zr757   2.369       .  S
O748       Zr757   2.373       .  S
O748        H773   0.966       .  S
C749       C1714   1.514       .  S
C750       C1970   1.486       .  S
C751       C1618   1.482       .  S
O752        H788   0.990       .  S
O753        C755   1.278       .  A
O754        C755   1.290       .  A
C755       C2153   1.480       .  S
O756       Zr757   2.434       .  S
O756        H785   0.990       .  S
Zr757       O760   2.434       .  S
Zr757       O761   2.437       .  S
Zr757       O762   2.461       .  S
O758        C763   1.283       .  A
O759        H776   0.990       .  S
O759        H791   0.990       .  S
O760        H777   0.989       .  S
O761        H781   0.990       .  S
O761        H790   0.990       .  S
O762        C763   1.288       .  A
C763       C1586   1.492       .  S
O764        H783   0.990       .  S
O764        H787   0.990       .  S
O765        H779   0.990       .  S
O765        H786   0.990       .  S
O766        C770   1.289       .  A
O767        C770   1.281       .  A
O768        H778   0.990       .  S
O769        H782   0.990       .  S
C770       C1650   1.471       .  S
Zr793       O794   2.441       .  S
Zr793       O795   2.457   1_545  S
Zr793       O796   2.510       .  S
Zr793       O799   2.468       .  S
Zr793       O801   2.382   1_545  S
Zr793       O802   2.402   1_545  S
Zr793       O803   2.410       .  S
Zr793       O804   2.413       .  S
O794        H850   0.990       .  S
O794        H858   0.990       .  S
O795        C815   1.290       .  A
O796        C817   1.297       .  A
O797       Zr807   2.411       .  S
O797        C816   1.280   1_565  A
O798       Zr806   2.385       .  S
O798        C817   1.275       .  A
O799        C816   1.292       .  A
O800       Zr808   2.434       .  S
O800        C815   1.281       .  A
O801       Zr806   2.393   1_565  S
O801       Zr808   2.381       .  S
O802       Zr807   2.391       .  S
O802       Zr808   2.371       .  S
O802        H837   0.966       .  S
O803       Zr806   2.397       .  S
O803       Zr823   2.395       .  S
O803        H840   0.965       .  S
O804       Zr807   2.405   1_545  S
O804       Zr823   2.385       .  S
Zr805       O830   2.443   1_556  S
Zr805       O824   2.489   1_565  S
Zr805       O832   2.401       .  S
Zr805       O820   2.455   1_566  S
Zr805       O811   2.418       .  S
Zr805       O812   2.413       .  S
Zr805       O813   2.376   1_565  S
Zr805       O814   2.375   1_565  S
Zr806       O825   2.436   1_556  S
Zr806       O818   2.435   1_556  S
Zr806       O819   2.403   1_556  S
Zr806       O812   2.385   1_545  S
Zr806       O813   2.397       .  S
Zr807       O809   2.434       .  S
Zr807       O831   2.437       .  S
Zr807       O833   2.462       .  S
Zr807       O811   2.378       .  S
Zr807       O814   2.365   1_565  S
Zr808       O834   2.436       .  S
Zr808       O835   2.434       .  S
Zr808       O810   2.435       .  S
Zr808       O811   2.397       .  S
Zr808       O812   2.410       .  S
O809        H846   0.990       .  S
O810        H841   0.990       .  S
O810        H855   0.990   1_556  S
O812        H838   0.965   1_556  S
O813       Zr823   2.384       .  S
O814       Zr823   2.376       .  S
O814        H839   0.961       .  S
C815       C1897   1.515       .  S
C816       C1449   1.477       .  S
C817       C2578   1.485       .  S
O818        H854   0.990       .  S
O819        C821   1.277       .  A
O820        C821   1.287       .  A
C821       C1481   1.481       .  S
O822       Zr823   2.435       .  S
O822        H851   0.990       .  S
Zr823       O826   2.435       .  S
Zr823       O827   2.437       .  S
Zr823       O828   2.418       .  S
O824        C829   1.294       .  A
O825        H842   0.990       .  S
O825        H857   0.990       .  S
O826        H843   0.990       .  S
O827        H847   0.990       .  S
O827        H856   0.990       .  S
O828        C829   1.280       .  A
C829       C1554   1.490       .  S
O830        H849   0.991       .  S
O830        H853   0.990       .  S
O831        H845   0.990       .  S
O831        H852   0.990       .  S
O832        C836   1.279       .  A
O833        C836   1.290       .  A
O834        H844   0.990       .  S
O835        H848   0.990   1_556  S
C836       C1522   1.480       .  S
Zr859       O860   2.441       .  S
Zr859       O861   2.462   1_545  S
Zr859       O862   2.501       .  S
Zr859       O865   2.461       .  S
Zr859       O867   2.384   1_545  S
Zr859       O868   2.400   1_545  S
Zr859       O869   2.408       .  S
Zr859       O870   2.412       .  S
O860        H916   0.990       .  S
O860        H924   0.990       .  S
O861        C881   1.289       .  A
O862        C883   1.294       .  A
O863       Zr873   2.413       .  S
O863        C882   1.283   1_565  A
O864       Zr872   2.402       .  S
O864        C883   1.278       .  A
O865        C882   1.289       .  A
O866       Zr874   2.434       .  S
O866        C881   1.282       .  A
O867       Zr872   2.402   1_565  S
O867       Zr874   2.383       .  S
O868       Zr873   2.396       .  S
O868       Zr874   2.373       .  S
O868        H903   0.965       .  S
O869       Zr872   2.395       .  S
O869       Zr889   2.397       .  S
O869        H906   0.962       .  S
O870       Zr873   2.404   1_545  S
O870       Zr889   2.389       .  S
Zr871       O896   2.440       .  S
Zr871       O890   2.463   1_565  S
Zr871       O898   2.404       .  S
Zr871       O886   2.445   1_565  S
Zr871       O877   2.415       .  S
Zr871       O878   2.405       .  S
Zr871       O879   2.376   1_565  S
Zr871       O880   2.378   1_565  S
Zr872       O891   2.434       .  S
Zr872       O884   2.434       .  S
Zr872       O885   2.426       .  S
Zr872       O878   2.383   1_545  S
Zr872       O879   2.394       .  S
Zr873       O875   2.436       .  S
Zr873       O897   2.437       .  S
Zr873       O899   2.467       .  S
Zr873       O877   2.386       .  S
Zr873       O880   2.373   1_565  S
Zr874       O900   2.435       .  S
Zr874       O901   2.435       .  S
Zr874       O876   2.434       .  S
Zr874       O877   2.404       .  S
Zr874       O878   2.400       .  S
O875        H912   0.990   1_565  S
O876        H907   0.990       .  S
O876        H921   0.990       .  S
O878        H904   0.966       .  S
O879       Zr889   2.384       .  S
O880       Zr889   2.373       .  S
O880        H905   0.964       .  S
C881       C2057   1.506       .  S
C882       C1490   1.482       .  S
C883       C2409   1.489       .  S
O884        H920   0.990   1_545  S
O885        C887   1.282       .  A
O886        C887   1.287       .  A
C887       C1458   1.493       .  S
O888       Zr889   2.436       .  S
O888        H917   0.990       .  S
Zr889       O892   2.435       .  S
Zr889       O893   2.439       .  S
Zr889       O894   2.423       .  S
O890        C895   1.288       .  A
O891        H908   0.989       .  S
O891        H923   0.989       .  S
O892        H909   0.990       .  S
O893        H913   0.990       .  S
O893        H922   0.990       .  S
O894        C895   1.282       .  A
C895       C1426   1.489       .  S
O896        H915   0.990       .  S
O896        H919   0.990       .  S
O897        H911   0.990       .  S
O897        H918   0.990       .  S
O898        C902   1.280       .  A
O899        C902   1.289       .  A
O900        H910   0.990       .  S
O901        H914   0.990       .  S
C902       C1394   1.510       .  S
Zr925       O926   2.436   1_556  S
Zr925       O927   2.444   1_455  S
Zr925       O928   2.491       .  S
Zr925       O931   2.441   1_556  S
Zr925       O933   2.378   1_455  S
Zr925       O934   2.399   1_455  S
Zr925       O935   2.410       .  S
Zr925       O936   2.409       .  S
O926        H982   0.990       .  S
O926        H990   0.990       .  S
O927        C947   1.286       .  A
O928        C949   1.294       .  A
O929       Zr939   2.426   1_554  S
O929        C948   1.284   1_655  A
O930       Zr938   2.403       .  S
O930        C949   1.279       .  A
O931        C948   1.286       .  A
O932       Zr940   2.442       .  S
O932        C947   1.285       .  A
O933       Zr938   2.389   1_655  S
O933       Zr940   2.377       .  S
O934       Zr939   2.384       .  S
O934       Zr940   2.377       .  S
O934        H969   0.966       .  S
O935       Zr938   2.395       .  S
O935       Zr955   2.407       .  S
O935        H972   0.966       .  S
O936       Zr939   2.399   1_455  S
O936       Zr955   2.390       .  S
Zr937       O962   2.437       .  S
Zr937       O956   2.474   1_655  S
Zr937       O964   2.418       .  S
Zr937       O952   2.469   1_655  S
Zr937       O943   2.417       .  S
Zr937       O944   2.410       .  S
Zr937       O945   2.379   1_655  S
Zr937       O946   2.380   1_655  S
Zr938       O957   2.437       .  S
Zr938       O950   2.436       .  S
Zr938       O951   2.408       .  S
Zr938       O944   2.384   1_455  S
Zr938       O945   2.395       .  S
Zr939       O941   2.435   1_556  S
Zr939       O963   2.435   1_556  S
Zr939       O965   2.451       .  S
Zr939       O943   2.391       .  S
Zr939       O946   2.378   1_655  S
Zr940       O966   2.435       .  S
Zr940       O967   2.436       .  S
Zr940       O942   2.437       .  S
Zr940       O943   2.403       .  S
Zr940       O944   2.399       .  S
O941        H978   0.990       .  S
O942        H973   0.990       .  S
O942        H987   0.990       .  S
O944        H970   0.965       .  S
O945       Zr955   2.380       .  S
O946       Zr955   2.378       .  S
O946        H971   0.962       .  S
C947       C2802   1.485       .  S
C948       C1330   1.473       .  S
C949       C1746   1.496       .  S
O950        H986   0.990       .  S
O951        C953   1.282       .  A
O952        C953   1.290       .  A
C953       C1289   1.502       .  S
O954       Zr955   2.435       .  S
O954        H983   0.990       .  S
Zr955       O958   2.436       .  S
Zr955       O959   2.436   1_556  S
Zr955       O960   2.428       .  S
O956        C961   1.291       .  A
O957        H974   0.990       .  S
O957        H989   0.990       .  S
O958        H975   0.990       .  S
O959        H979   0.990       .  S
O959        H988   0.990       .  S
O960        C961   1.282       .  A
C961       C1545   1.486       .  S
O962        H981   0.990       .  S
O962        H985   0.990       .  S
O963        H977   0.990       .  S
O963        H984   0.990       .  S
O964        C968   1.281       .  A
O965        C968   1.286       .  A
O966        H976   0.990       .  S
O967        H980   0.991       .  S
C968       C1353   1.495       .  S
Zr991       O992   2.440       .  S
Zr991       O993   2.443   1_455  S
Zr991       O994   2.496       .  S
Zr991       O997   2.456       .  S
Zr991       O999   2.381       .  S
Zr991      O1000   2.399   1_455  S
Zr991      O1001   2.407       .  S
Zr991      O1002   2.410       .  S
O992       H1048   0.990       .  S
O992       H1056   0.990       .  S
O993       C1013   1.285       .  A
O994       C1015   1.294       .  A
O995      Zr1005   2.427       .  S
O995       C1014   1.283   1_655  A
O996      Zr1004   2.392       .  S
O996       C1015   1.276       .  A
O997       C1014   1.288       .  A
O998      Zr1006   2.445       .  S
O998       C1013   1.285       .  A
O999      Zr1004   2.399       .  S
O999      Zr1006   2.378   1_455  S
O1000     Zr1005   2.390       .  S
O1000     Zr1006   2.374       .  S
O1000      H1035   0.965       .  S
O1001     Zr1004   2.396       .  S
O1001     Zr1021   2.395       .  S
O1001      H1038   0.965       .  S
O1002     Zr1005   2.409   1_455  S
O1002     Zr1021   2.398       .  S
Zr1003     O1028   2.440   1_455  S
Zr1003     O1022   2.493       .  S
Zr1003     O1030   2.424   1_455  S
Zr1003     O1018   2.476       .  S
Zr1003     O1009   2.426   1_455  S
Zr1003     O1010   2.413   1_455  S
Zr1003     O1011   2.375       .  S
Zr1003     O1012   2.384       .  S
Zr1004     O1023   2.436       .  S
Zr1004     O1016   2.435       .  S
Zr1004     O1017   2.412       .  S
Zr1004     O1010   2.388   1_455  S
Zr1004     O1011   2.387       .  S
Zr1005     O1007   2.435       .  S
Zr1005     O1029   2.437       .  S
Zr1005     O1031   2.475       .  S
Zr1005     O1009   2.389       .  S
Zr1005     O1012   2.367   1_655  S
Zr1006     O1032   2.436       .  S
Zr1006     O1033   2.436       .  S
Zr1006     O1008   2.435       .  S
Zr1006     O1009   2.409       .  S
Zr1006     O1010   2.403       .  S
O1007      H1044   0.989   1_655  S
O1008      H1039   0.990       .  S
O1008      H1053   0.990       .  S
O1010      H1036   0.966       .  S
O1011     Zr1021   2.372       .  S
O1012     Zr1021   2.385       .  S
O1012      H1037   0.958       .  S
C1013      C2610   1.488       .  S
C1014      C1298   1.481       .  S
C1015      C1865   1.483       .  S
O1016      H1052   0.990       .  S
O1017      C1019   1.279       .  A
O1018      C1019   1.294       .  A
C1019      C1321   1.503       .  S
O1020     Zr1021   2.439       .  S
O1020      H1049   0.991       .  S
Zr1021     O1024   2.440       .  S
Zr1021     O1025   2.437       .  S
Zr1021     O1026   2.417       .  S
O1022      C1027   1.295       .  A
O1023      H1040   0.990       .  S
O1023      H1055   0.990       .  S
O1024      H1041   0.990       .  S
O1025      H1045   0.990       .  S
O1025      H1054   0.990       .  S
O1026      C1027   1.282       .  A
C1027      C1417   1.486       .  S
O1028      H1047   0.990       .  S
O1028      H1051   0.990       .  S
O1029      H1043   0.990       .  S
O1029      H1050   0.990       .  S
O1030      C1034   1.283       .  A
O1031      C1034   1.291       .  A
O1032      H1042   0.990       .  S
O1033      H1046   0.990       .  S
C1034      C1257   1.512       .  S
Zr1057     O1058   2.443   1_556  S
Zr1057     O1059   2.471       .  S
Zr1057     O1060   2.447   1_556  S
Zr1057     O1063   2.426       .  S
Zr1057     O1065   2.381       .  S
Zr1057     O1066   2.378       .  S
Zr1057     O1067   2.418       .  S
Zr1057     O1068   2.411       .  S
O1058      H1114   0.990       .  S
O1058      H1122   0.990       .  S
O1059      C1079   1.288       .  A
O1060      C1081   1.285       .  A
O1061     Zr1071   2.435       .  S
O1061      C1080   1.284       .  A
O1062     Zr1070   2.413   1_554  S
O1062      C1081   1.279       .  A
O1063      C1080   1.282       .  A
O1064     Zr1072   2.401       .  S
O1064      C1079   1.280       .  A
O1065     Zr1070   2.392       .  S
O1065     Zr1072   2.382       .  S
O1066     Zr1071   2.384       .  S
O1066     Zr1072   2.379       .  S
O1066      H1101   0.965       .  S
O1067     Zr1070   2.395       .  S
O1067     Zr1087   2.407       .  S
O1067      H1104   0.965   1_556  S
O1068     Zr1071   2.382       .  S
O1068     Zr1087   2.403       .  S
Zr1069     O1094   2.440       .  S
Zr1069     O1088   2.441       .  S
Zr1069     O1096   2.448       .  S
Zr1069     O1084   2.491       .  S
Zr1069     O1075   2.403       .  S
Zr1069     O1076   2.405       .  S
Zr1069     O1077   2.382       .  S
Zr1069     O1078   2.396       .  S
Zr1070     O1089   2.437   1_556  S
Zr1070     O1082   2.435   1_556  S
Zr1070     O1083   2.392       .  S
Zr1070     O1076   2.395       .  S
Zr1070     O1077   2.400       .  S
Zr1071     O1073   2.435       .  S
Zr1071     O1095   2.438       .  S
Zr1071     O1097   2.415       .  S
Zr1071     O1075   2.391       .  S
Zr1071     O1078   2.392       .  S
Zr1072     O1098   2.438       .  S
Zr1072     O1099   2.435       .  S
Zr1072     O1074   2.436       .  S
Zr1072     O1075   2.378       .  S
Zr1072     O1076   2.383       .  S
O1073      H1110   0.990       .  S
O1074      H1105   0.990       .  S
O1074      H1119   0.990       .  S
O1076      H1102   0.965       .  S
O1077     Zr1087   2.378       .  S
O1078     Zr1087   2.375       .  S
O1078      H1103   0.966       .  S
C1079      C1513   1.510       .  S
C1080      C1362   1.471       .  S
C1081      C1225   1.476       .  S
O1082      H1118   0.990   1_554  S
O1083      C1085   1.278       .  A
O1084      C1085   1.293       .  A
C1085      C2322   1.492       .  S
O1086     Zr1087   2.437       .  S
O1086      H1115   0.990   1_556  S
Zr1087     O1090   2.436       .  S
Zr1087     O1091   2.436       .  S
Zr1087     O1092   2.451       .  S
O1088      C1093   1.287       .  A
O1089      H1106   0.990       .  S
O1089      H1121   0.989       .  S
O1090      H1107   0.990   1_556  S
O1091      H1111   0.990       .  S
O1091      H1120   0.989       .  S
O1092      C1093   1.285       .  A
C1093      C1577   1.508       .  S
O1094      H1113   0.990       .  S
O1094      H1117   0.990       .  S
O1095      H1109   0.990       .  S
O1095      H1116   0.989       .  S
O1096      C1100   1.288       .  A
O1097      C1100   1.282       .  A
O1098      H1108   0.990       .  S
O1099      H1112   0.990       .  S
C1100      C1193   1.476       .  S
Zr1123     O1124   2.441       .  S
Zr1123     O1125   2.459       .  S
Zr1123     O1126   2.442       .  S
Zr1123     O1129   2.424       .  S
Zr1123     O1131   2.381       .  S
Zr1123     O1132   2.376       .  S
Zr1123     O1133   2.410       .  S
Zr1123     O1134   2.410       .  S
O1124      H1180   0.990       .  S
O1124      H1188   0.990       .  S
O1125      C1145   1.289       .  A
O1126      C1147   1.286       .  A
O1127     Zr1137   2.461       .  S
O1127      C1146   1.288       .  A
O1128     Zr1136   2.411       .  S
O1128      C1147   1.279       .  A
O1129      C1146   1.284       .  A
O1130     Zr1138   2.407       .  S
O1130      C1145   1.280       .  A
O1131     Zr1136   2.391       .  S
O1131     Zr1138   2.384       .  S
O1132     Zr1137   2.377       .  S
O1132     Zr1138   2.382       .  S
O1132      H1167   0.965       .  S
O1133     Zr1136   2.384       .  S
O1133     Zr1153   2.407       .  S
O1133      H1170   0.966       .  S
O1134     Zr1137   2.382       .  S
O1134     Zr1153   2.407       .  S
Zr1135     O1160   2.438       .  S
Zr1135     O1154   2.426       .  S
Zr1135     O1162   2.467       .  S
Zr1135     O1150   2.491       .  S
Zr1135     O1141   2.402       .  S
Zr1135     O1142   2.400       .  S
Zr1135     O1143   2.384       .  S
Zr1135     O1144   2.397       .  S
Zr1136     O1155   2.437       .  S
Zr1136     O1148   2.436       .  S
Zr1136     O1149   2.398       .  S
Zr1136     O1142   2.394       .  S
Zr1136     O1143   2.394       .  S
Zr1137     O1139   2.434       .  S
Zr1137     O1161   2.442       .  S
Zr1137     O1163   2.414       .  S
Zr1137     O1141   2.408       .  S
Zr1137     O1144   2.396       .  S
Zr1138     O1164   2.436       .  S
Zr1138     O1165   2.436       .  S
Zr1138     O1140   2.438       .  S
Zr1138     O1141   2.382       .  S
Zr1138     O1142   2.385       .  S
O1139      H1176   0.990       .  S
O1140      H1171   0.990       .  S
O1140      H1185   0.990       .  S
O1142      H1168   0.966       .  S
O1143     Zr1153   2.377       .  S
O1144     Zr1153   2.374       .  S
O1144      H1169   0.966       .  S
C1145      C1385   1.480       .  S
C1146      C1266   1.498       .  S
C1147      C1202   1.480       .  S
O1148      H1184   0.990       .  S
O1149      C1151   1.278       .  A
O1150      C1151   1.295       .  A
C1151      C2194   1.487       .  S
O1152     Zr1153   2.436       .  S
O1152      H1181   0.990       .  S
Zr1153     O1156   2.437       .  S
Zr1153     O1157   2.437       .  S
Zr1153     O1158   2.451       .  S
O1154      C1159   1.279       .  A
O1155      H1172   0.990       .  S
O1155      H1187   0.990       .  S
O1156      H1173   0.990       .  S
O1157      H1177   0.990       .  S
O1157      H1186   0.990       .  S
O1158      C1159   1.288       .  A
C1159      C1682   1.510       .  S
O1160      H1179   0.990       .  S
O1160      H1183   0.990       .  S
O1161      H1175   0.990       .  S
O1161      H1182   0.989       .  S
O1162      C1166   1.292       .  A
O1163      C1166   1.281       .  A
O1164      H1174   0.990       .  S
O1165      H1178   0.990       .  S
C1166      C1234   1.493       .  S
C1189      C1190   1.397       .  A
C1189      C1194   1.401       .  A
C1189      H1199   1.084       .  S
C1190      C1195   1.476       .  S
C1190      C1191   1.415       .  A
C1191      C1192   1.406       .  A
C1191      C1196   1.518       .  S
C1192      C1193   1.403       .  A
C1192      H1197   1.083       .  S
C1193      C1194   1.420       .  A
C1194      C1198   1.517       .  S
C1195      C1200   1.415       .  A
C1195      C1204   1.398       .  A
C1196      F1212   1.382       .  S
C1196      F1213   1.382       .  S
C1196      F1214   1.384       .  S
C1198      F1209   1.385       .  S
C1198      F1210   1.384       .  S
C1198      F1211   1.378       .  S
C1200      C1201   1.404       .  A
C1200      C1205   1.520       .  S
C1201      C1202   1.405       .  A
C1201      H1206   1.083       .  S
C1202      C1203   1.421       .  A
C1203      C1204   1.403       .  A
C1203      C1207   1.518       .  S
C1204      H1208   1.084       .  S
C1205      F1218   1.385       .  S
C1205      F1219   1.382       .  S
C1205      F1220   1.382       .  S
C1207      F1215   1.385       .  S
C1207      F1216   1.383       .  S
C1207      F1217   1.383       .  S
C1221      C1222   1.403       .  A
C1221      C1226   1.408       .  A
C1221      H1231   1.083       .  S
C1222      C1227   1.484       .  S
C1222      C1223   1.417       .  A
C1223      C1224   1.406       .  A
C1223      C1228   1.520       .  S
C1224      C1225   1.403       .  A
C1224      H1229   1.083       .  S
C1225      C1226   1.418       .  A
C1226      C1230   1.520       .  S
C1227      C1232   1.414       .  A
C1227      C1236   1.398       .  A
C1228      F1244   1.382       .  S
C1228      F1245   1.381       .  S
C1228      F1246   1.385       .  S
C1230      F1241   1.380       .  S
C1230      F1242   1.384       .  S
C1230      F1243   1.384       .  S
C1232      C1233   1.409       .  A
C1232      C1237   1.518       .  S
C1233      C1234   1.406       .  A
C1233      H1238   1.082       .  S
C1234      C1235   1.428       .  A
C1235      C1236   1.406       .  A
C1235      C1239   1.519       .  S
C1236      H1240   1.083       .  S
C1237      F1250   1.385       .  S
C1237      F1251   1.382       .  S
C1237      F1252   1.382       .  S
C1239      F1247   1.383       .  S
C1239      F1248   1.382       .  S
C1239      F1249   1.385       .  S
C1253      C1254   1.405       .  A
C1253      C1258   1.418       .  A
C1253      H1263   1.083       .  S
C1254      C1259   1.502   1_545  S
C1254      C1255   1.415       .  A
C1255      C1256   1.410       .  A
C1255      C1260   1.520       .  S
C1256      C1257   1.413       .  A
C1256      H1261   1.082       .  S
C1257      C1258   1.426       .  A
C1258      C1262   1.517       .  S
C1259      C1264   1.418       .  A
C1259      C1268   1.406       .  A
C1260      F1276   1.383       .  S
C1260      F1277   1.382       .  S
C1260      F1278   1.385       .  S
C1262      F1273   1.384       .  S
C1262      F1274   1.384       .  S
C1262      F1275   1.382       .  S
C1264      C1265   1.410       .  A
C1264      C1269   1.518       .  S
C1265      C1266   1.407       .  A
C1265      H1270   1.083       .  S
C1266      C1267   1.421       .  A
C1267      C1268   1.416       .  A
C1267      C1271   1.518       .  S
C1268      H1272   1.083       .  S
C1269      F1282   1.385       .  S
C1269      F1283   1.382   1_565  S
C1269      F1284   1.382   1_565  S
C1271      F1279   1.384       .  S
C1271      F1280   1.384       .  S
C1271      F1281   1.382       .  S
C1285      C1286   1.402   1_655  A
C1285      C1290   1.413       .  A
C1285      H1295   1.083       .  S
C1286      C1291   1.486       .  S
C1286      C1287   1.410       .  A
C1287      C1288   1.404       .  A
C1287      C1292   1.521       .  S
C1288      C1289   1.412       .  A
C1288      H1293   1.082       .  S
C1289      C1290   1.425   1_455  A
C1290      C1294   1.516       .  S
C1291      C1296   1.416       .  A
C1291      C1300   1.402   1_455  A
C1292      F1308   1.382       .  S
C1292      F1309   1.381       .  S
C1292      F1310   1.384       .  S
C1294      F1305   1.381       .  S
C1294      F1306   1.385       .  S
C1294      F1307   1.384       .  S
C1296      C1297   1.409       .  A
C1296      C1301   1.520       .  S
C1297      C1298   1.405       .  A
C1297      H1302   1.083       .  S
C1298      C1299   1.416   1_455  A
C1299      C1300   1.408       .  A
C1299      C1303   1.516       .  S
C1300      H1304   1.083       .  S
C1301      F1314   1.385       .  S
C1301      F1315   1.382       .  S
C1301      F1316   1.381       .  S
C1303      F1311   1.385       .  S
C1303      F1312   1.383       .  S
C1303      F1313   1.382       .  S
C1317      C1318   1.395       .  A
C1317      C1322   1.407       .  A
C1317      H1327   1.084       .  S
C1318      C1323   1.489       .  S
C1318      C1319   1.415       .  A
C1319      C1320   1.413       .  A
C1319      C1324   1.518   1_455  S
C1320      C1321   1.410       .  A
C1320      H1325   1.082   1_455  S
C1321      C1322   1.431       .  A
C1322      C1326   1.520       .  S
C1323      C1328   1.420   1_455  A
C1323      C1332   1.402       .  A
C1324      F1340   1.383   1_655  S
C1324      F1341   1.382       .  S
C1324      F1342   1.384       .  S
C1326      F1337   1.382       .  S
C1326      F1338   1.386       .  S
C1326      F1339   1.383       .  S
C1328      C1329   1.410       .  A
C1328      C1333   1.518       .  S
C1329      C1330   1.400   1_655  A
C1329      H1334   1.083       .  S
C1330      C1331   1.414       .  A
C1331      C1332   1.405       .  A
C1331      C1335   1.517       .  S
C1332      H1336   1.083       .  S
C1333      F1346   1.384       .  S
C1333      F1347   1.382       .  S
C1333      F1348   1.382       .  S
C1335      F1343   1.384       .  S
C1335      F1344   1.384       .  S
C1335      F1345   1.380       .  S
C1349      C1350   1.402       .  A
C1349      C1354   1.411       .  A
C1349      H1359   1.083       .  S
C1350      C1355   1.484   1_545  S
C1350      C1351   1.411       .  A
C1351      C1352   1.404       .  A
C1351      C1356   1.520       .  S
C1352      C1353   1.411       .  A
C1352      H1357   1.082       .  S
C1353      C1354   1.423       .  A
C1354      C1358   1.517   1_556  S
C1355      C1360   1.418       .  A
C1355      C1364   1.402       .  A
C1356      F1372   1.382       .  S
C1356      F1373   1.382       .  S
C1356      F1374   1.385       .  S
C1358      F1369   1.383       .  S
C1358      F1370   1.385       .  S
C1358      F1371   1.381       .  S
C1360      C1361   1.407       .  A
C1360      C1365   1.520       .  S
C1361      C1362   1.401       .  A
C1361      H1366   1.083       .  S
C1362      C1363   1.414       .  A
C1363      C1364   1.407       .  A
C1363      C1367   1.517       .  S
C1364      H1368   1.083       .  S
C1365      F1378   1.385       .  S
C1365      F1379   1.382   1_565  S
C1365      F1380   1.383   1_565  S
C1367      F1375   1.383       .  S
C1367      F1376   1.383       .  S
C1367      F1377   1.384       .  S
C1381      C1382   1.403       .  A
C1381      C1386   1.404       .  A
C1381      H1391   1.084       .  S
C1382      C1387   1.489   1_655  S
C1382      C1383   1.418       .  A
C1383      C1384   1.411       .  A
C1383      C1388   1.519       .  S
C1384      C1385   1.405       .  A
C1384      H1389   1.083       .  S
C1385      C1386   1.417       .  A
C1386      C1390   1.517       .  S
C1387      C1392   1.409       .  A
C1387      C1396   1.405       .  A
C1388      F1404   1.382       .  S
C1388      F1405   1.382   1_655  S
C1388      F1406   1.384       .  S
C1390      F1401   1.384       .  S
C1390      F1402   1.385       .  S
C1390      F1403   1.382       .  S
C1392      C1393   1.403       .  A
C1392      C1397   1.522       .  S
C1393      C1394   1.416       .  A
C1393      H1398   1.080       .  S
C1394      C1395   1.426       .  A
C1395      C1396   1.416       .  A
C1395      C1399   1.518       .  S
C1396      H1400   1.083       .  S
C1397      F1410   1.384       .  S
C1397      F1411   1.381       .  S
C1397      F1412   1.382       .  S
C1399      F1407   1.382       .  S
C1399      F1408   1.383       .  S
C1399      F1409   1.384       .  S
C1413      C1414   1.395       .  A
C1413      C1418   1.404       .  A
C1413      H1423   1.083       .  S
C1414      C1419   1.488       .  S
C1414      C1415   1.419       .  A
C1415      C1416   1.415       .  A
C1415      C1420   1.518       .  S
C1416      C1417   1.404       .  A
C1416      H1421   1.083       .  S
C1417      C1418   1.422       .  A
C1418      C1422   1.516       .  S
C1419      C1424   1.414       .  A
C1419      C1428   1.401       .  A
C1420      F1436   1.383       .  S
C1420      F1437   1.381       .  S
C1420      F1438   1.384       .  S
C1422      F1433   1.384       .  S
C1422      F1434   1.382       .  S
C1422      F1435   1.380       .  S
C1424      C1425   1.408       .  A
C1424      C1429   1.520       .  S
C1425      C1426   1.406       .  A
C1425      H1430   1.083       .  S
C1426      C1427   1.423       .  A
C1427      C1428   1.410       .  A
C1427      C1431   1.517       .  S
C1428      H1432   1.083       .  S
C1429      F1442   1.384       .  S
C1429      F1443   1.383       .  S
C1429      F1444   1.381       .  S
C1431      F1439   1.385       .  S
C1431      F1440   1.382       .  S
C1431      F1441   1.380       .  S
C1445      C1446   1.399       .  A
C1445      C1450   1.405       .  A
C1445      H1455   1.083       .  S
C1446      C1451   1.482       .  S
C1446      C1447   1.417   1_545  A
C1447      C1448   1.408       .  A
C1447      C1452   1.519       .  S
C1448      C1449   1.402   1_565  A
C1448      H1453   1.083       .  S
C1449      C1450   1.420       .  A
C1450      C1454   1.519       .  S
C1451      C1456   1.414   1_545  A
C1451      C1460   1.396       .  A
C1452      F1468   1.382       .  S
C1452      F1469   1.381       .  S
C1452      F1470   1.385       .  S
C1454      F1465   1.379       .  S
C1454      F1466   1.385       .  S
C1454      F1467   1.383       .  S
C1456      C1457   1.412       .  A
C1456      C1461   1.520       .  S
C1457      C1458   1.411   1_565  A
C1457      H1462   1.083       .  S
C1458      C1459   1.424       .  A
C1459      C1460   1.402       .  A
C1459      C1463   1.517       .  S
C1460      H1464   1.084       .  S
C1461      F1474   1.385       .  S
C1461      F1475   1.383       .  S
C1461      F1476   1.381       .  S
C1463      F1471   1.385       .  S
C1463      F1472   1.383       .  S
C1463      F1473   1.382       .  S
C1477      C1478   1.396       .  A
C1477      C1482   1.400       .  A
C1477      H1487   1.084       .  S
C1478      C1483   1.481       .  S
C1478      C1479   1.415       .  A
C1479      C1480   1.409       .  A
C1479      C1484   1.517       .  S
C1480      C1481   1.405       .  A
C1480      H1485   1.083       .  S
C1481      C1482   1.424       .  A
C1482      C1486   1.520   1_545  S
C1483      C1488   1.416   1_545  A
C1483      C1492   1.402       .  A
C1484      F1500   1.383       .  S
C1484      F1501   1.382       .  S
C1484      F1502   1.385       .  S
C1486      F1497   1.385       .  S
C1486      F1498   1.381   1_565  S
C1486      F1499   1.383       .  S
C1488      C1489   1.403       .  A
C1488      C1493   1.522       .  S
C1489      C1490   1.405   1_565  A
C1489      H1494   1.083       .  S
C1490      C1491   1.419       .  A
C1491      C1492   1.409       .  A
C1491      C1495   1.517       .  S
C1492      H1496   1.083       .  S
C1493      F1506   1.385       .  S
C1493      F1507   1.381       .  S
C1493      F1508   1.382       .  S
C1495      F1503   1.380       .  S
C1495      F1504   1.383       .  S
C1495      F1505   1.385       .  S
C1509      C1510   1.405       .  A
C1509      C1514   1.418       .  A
C1509      H1519   1.083       .  S
C1510      C1515   1.487   1_655  S
C1510      C1511   1.410       .  A
C1511      C1512   1.401       .  A
C1511      C1516   1.525       .  S
C1512      C1513   1.415       .  A
C1512      H1517   1.081       .  S
C1513      C1514   1.429       .  A
C1514      C1518   1.520       .  S
C1515      C1520   1.416       .  A
C1515      C1524   1.401       .  A
C1516      F1532   1.381   1_655  S
C1516      F1533   1.382   1_655  S
C1516      F1534   1.384       .  S
C1518      F1529   1.383       .  S
C1518      F1530   1.385   1_556  S
C1518      F1531   1.383   1_556  S
C1520      C1521   1.407       .  A
C1520      C1525   1.519       .  S
C1521      C1522   1.403       .  A
C1521      H1526   1.083       .  S
C1522      C1523   1.423       .  A
C1523      C1524   1.406       .  A
C1523      C1527   1.520   1_556  S
C1524      H1528   1.085   1_556  S
C1525      F1538   1.385       .  S
C1525      F1539   1.382       .  S
C1525      F1540   1.382   1_455  S
C1527      F1535   1.385       .  S
C1527      F1536   1.383       .  S
C1527      F1537   1.382   1_554  S
C1541      C1542   1.401       .  A
C1541      C1546   1.410       .  A
C1541      H1551   1.083       .  S
C1542      C1547   1.497       .  S
C1542      C1543   1.420       .  A
C1543      C1544   1.413       .  A
C1543      C1548   1.518       .  S
C1544      C1545   1.402       .  A
C1544      H1549   1.083       .  S
C1545      C1546   1.419       .  A
C1546      C1550   1.515       .  S
C1547      C1552   1.420       .  A
C1547      C1556   1.402       .  A
C1548      F1564   1.383       .  S
C1548      F1565   1.381       .  S
C1548      F1566   1.385       .  S
C1550      F1561   1.383   1_455  S
C1550      F1562   1.385       .  S
C1550      F1563   1.381       .  S
C1552      C1553   1.412       .  A
C1552      C1557   1.519       .  S
C1553      C1554   1.403       .  A
C1553      H1558   1.083       .  S
C1554      C1555   1.422       .  A
C1555      C1556   1.413       .  A
C1555      C1559   1.516       .  S
C1556      H1560   1.083       .  S
C1557      F1570   1.384       .  S
C1557      F1571   1.382       .  S
C1557      F1572   1.381       .  S
C1559      F1567   1.384       .  S
C1559      F1568   1.382   1_545  S
C1559      F1569   1.381       .  S
C1573      C1574   1.400       .  A
C1573      C1578   1.414       .  A
C1573      H1583   1.083       .  S
C1574      C1579   1.493       .  S
C1574      C1575   1.413       .  A
C1575      C1576   1.408       .  A
C1575      C1580   1.520       .  S
C1576      C1577   1.412       .  A
C1576      H1581   1.082       .  S
C1577      C1578   1.430       .  A
C1578      C1582   1.519       .  S
C1579      C1584   1.414       .  A
C1579      C1588   1.406       .  A
C1580      F1596   1.382       .  S
C1580      F1597   1.382       .  S
C1580      F1598   1.385       .  S
C1582      F1593   1.382       .  S
C1582      F1594   1.386       .  S
C1582      F1595   1.382       .  S
C1584      C1585   1.406       .  A
C1584      C1589   1.520       .  S
C1585      C1586   1.406       .  A
C1585      H1590   1.083       .  S
C1586      C1587   1.421       .  A
C1587      C1588   1.415       .  A
C1587      C1591   1.518       .  S
C1588      H1592   1.083       .  S
C1589      F1602   1.384       .  S
C1589      F1603   1.382       .  S
C1589      F1604   1.382       .  S
C1591      F1599   1.383       .  S
C1591      F1600   1.383       .  S
C1591      F1601   1.385       .  S
C1605      C1606   1.399       .  A
C1605      C1610   1.408       .  A
C1605      H1615   1.083       .  S
C1606      C1611   1.485       .  S
C1606      C1607   1.415       .  A
C1607      C1608   1.409       .  A
C1607      C1612   1.520       .  S
C1608      C1609   1.407       .  A
C1608      H1613   1.083       .  S
C1609      C1610   1.426       .  A
C1610      C1614   1.521       .  S
C1611      C1616   1.414       .  A
C1611      C1620   1.404       .  A
C1612      F1628   1.382       .  S
C1612      F1629   1.382       .  S
C1612      F1630   1.384       .  S
C1614      F1625   1.385       .  S
C1614      F1626   1.382       .  S
C1614      F1627   1.382       .  S
C1616      C1617   1.404       .  A
C1616      C1621   1.520       .  S
C1617      C1618   1.406       .  A
C1617      H1622   1.083       .  S
C1618      C1619   1.417       .  A
C1619      C1620   1.409       .  A
C1619      C1623   1.517       .  S
C1620      H1624   1.083       .  S
C1621      F1634   1.385       .  S
C1621      F1635   1.382       .  S
C1621      F1636   1.382       .  S
C1623      F1631   1.379       .  S
C1623      F1632   1.383       .  S
C1623      F1633   1.384       .  S
C1637      C1638   1.394   1_554  A
C1637      C1642   1.403       .  A
C1637      H1647   1.084   1_554  S
C1638      C1643   1.481       .  S
C1638      C1639   1.414       .  A
C1639      C1640   1.411   1_556  A
C1639      C1644   1.520       .  S
C1640      C1641   1.410       .  A
C1640      H1645   1.083       .  S
C1641      C1642   1.430       .  A
C1642      C1646   1.521       .  S
C1643      C1648   1.418       .  A
C1643      C1652   1.401       .  A
C1644      F1660   1.383       .  S
C1644      F1661   1.382       .  S
C1644      F1662   1.384       .  S
C1646      F1657   1.381       .  S
C1646      F1658   1.385       .  S
C1646      F1659   1.383       .  S
C1648      C1649   1.407       .  A
C1648      C1653   1.520       .  S
C1649      C1650   1.400       .  A
C1649      H1654   1.083       .  S
C1650      C1651   1.418       .  A
C1651      C1652   1.405       .  A
C1651      C1655   1.519       .  S
C1652      H1656   1.083       .  S
C1653      F1666   1.384       .  S
C1653      F1667   1.382       .  S
C1653      F1668   1.381       .  S
C1655      F1663   1.384       .  S
C1655      F1664   1.384       .  S
C1655      F1665   1.380       .  S
C1669      C1670   1.399       .  A
C1669      C1674   1.403       .  A
C1669      H1679   1.083       .  S
C1670      C1675   1.490       .  S
C1670      C1671   1.421       .  A
C1671      C1672   1.411       .  A
C1671      C1676   1.520       .  S
C1672      C1673   1.405       .  A
C1672      H1677   1.083       .  S
C1673      C1674   1.422       .  A
C1674      C1678   1.521       .  S
C1675      C1680   1.415       .  A
C1675      C1684   1.396       .  A
C1676      F1692   1.381       .  S
C1676      F1693   1.382       .  S
C1676      F1694   1.385       .  S
C1678      F1689   1.383       .  S
C1678      F1690   1.385       .  S
C1678      F1691   1.383       .  S
C1680      C1681   1.411       .  A
C1680      C1685   1.520       .  S
C1681      C1682   1.413       .  A
C1681      H1686   1.082       .  S
C1682      C1683   1.433       .  A
C1683      C1684   1.407       .  A
C1683      C1687   1.522       .  S
C1684      H1688   1.083       .  S
C1685      F1698   1.384       .  S
C1685      F1699   1.382       .  S
C1685      F1700   1.383       .  S
C1687      F1695   1.380       .  S
C1687      F1696   1.383       .  S
C1687      F1697   1.385       .  S
C1701      C1702   1.403       .  A
C1701      C1706   1.409       .  A
C1701      H1711   1.084       .  S
C1702      C1707   1.500       .  S
C1702      C1703   1.420       .  A
C1703      C1704   1.415       .  A
C1703      C1708   1.519       .  S
C1704      C1705   1.405       .  A
C1704      H1709   1.083       .  S
C1705      C1706   1.422       .  A
C1706      C1710   1.521       .  S
C1707      C1712   1.413       .  A
C1707      C1716   1.409       .  A
C1708      F1724   1.381       .  S
C1708      F1725   1.383       .  S
C1708      F1726   1.384       .  S
C1710      F1721   1.384       .  S
C1710      F1722   1.382       .  S
C1710      F1723   1.382       .  S
C1712      C1713   1.403       .  A
C1712      C1717   1.523       .  S
C1713      C1714   1.416       .  A
C1713      H1718   1.081       .  S
C1714      C1715   1.425       .  A
C1715      C1716   1.421       .  A
C1715      C1719   1.518       .  S
C1716      H1720   1.083       .  S
C1717      F1730   1.386       .  S
C1717      F1731   1.381       .  S
C1717      F1732   1.382       .  S
C1719      F1727   1.385       .  S
C1719      F1728   1.383       .  S
C1719      F1729   1.383       .  S
C1733      C1734   1.404       .  A
C1733      C1738   1.416       .  A
C1733      H1743   1.083       .  S
C1734      C1739   1.494       .  S
C1734      C1735   1.410       .  A
C1735      C1736   1.407       .  A
C1735      C1740   1.521       .  S
C1736      C1737   1.417       .  A
C1736      H1741   1.080       .  S
C1737      C1738   1.427       .  A
C1738      C1742   1.519       .  S
C1739      C1744   1.416       .  A
C1739      C1748   1.404       .  A
C1740      F1756   1.383       .  S
C1740      F1757   1.383       .  S
C1740      F1758   1.384       .  S
C1742      F1753   1.384       .  S
C1742      F1754   1.384       .  S
C1742      F1755   1.383       .  S
C1744      C1745   1.408       .  A
C1744      C1749   1.521       .  S
C1745      C1746   1.409       .  A
C1745      H1750   1.083       .  S
C1746      C1747   1.419       .  A
C1747      C1748   1.414       .  A
C1747      C1751   1.513       .  S
C1748      H1752   1.082       .  S
C1749      F1762   1.384       .  S
C1749      F1763   1.382       .  S
C1749      F1764   1.383       .  S
C1751      F1759   1.382       .  S
C1751      F1760   1.381       .  S
C1751      F1761   1.385       .  S
C1765      C1766   1.400       .  A
C1765      C1770   1.406       .  A
C1765      H1775   1.083       .  S
C1766      C1771   1.484       .  S
C1766      C1767   1.414       .  A
C1767      C1768   1.403       .  A
C1767      C1772   1.521       .  S
C1768      C1769   1.411       .  A
C1768      H1773   1.082       .  S
C1769      C1770   1.422       .  A
C1770      C1774   1.517       .  S
C1771      C1776   1.420       .  A
C1771      C1780   1.401       .  A
C1772      F1788   1.382       .  S
C1772      F1789   1.383       .  S
C1772      F1790   1.385       .  S
C1774      F1785   1.383       .  S
C1774      F1786   1.386       .  S
C1774      F1787   1.380       .  S
C1776      C1777   1.407       .  A
C1776      C1781   1.520       .  S
C1777      C1778   1.400       .  A
C1777      H1782   1.083       .  S
C1778      C1779   1.416       .  A
C1779      C1780   1.405       .  A
C1779      C1783   1.517       .  S
C1780      H1784   1.082       .  S
C1781      F1794   1.384       .  S
C1781      F1795   1.381       .  S
C1781      F1796   1.383       .  S
C1783      F1791   1.385       .  S
C1783      F1792   1.380       .  S
C1783      F1793   1.383       .  S
C1797      C1798   1.401       .  A
C1797      C1802   1.403       .  A
C1797      H1807   1.083       .  S
C1798      C1803   1.466   1_556  S
C1798      C1799   1.410       .  A
C1799      C1800   1.397       .  A
C1799      C1804   1.521       .  S
C1800      C1801   1.404       .  A
C1800      H1805   1.083       .  S
C1801      C1802   1.415       .  A
C1802      C1806   1.517       .  S
C1803      C1808   1.409       .  A
C1803      C1812   1.398       .  A
C1804      F1820   1.382       .  S
C1804      F1821   1.382       .  S
C1804      F1822   1.384       .  S
C1806      F1817   1.382       .  S
C1806      F1818   1.384       .  S
C1806      F1819   1.383       .  S
C1808      C1809   1.399       .  A
C1808      C1813   1.521       .  S
C1809      C1810   1.406       .  A
C1809      H1814   1.084       .  S
C1810      C1811   1.418       .  A
C1811      C1812   1.402       .  A
C1811      C1815   1.515       .  S
C1812      H1816   1.084       .  S
C1813      F1826   1.384       .  S
C1813      F1827   1.383   1_554  S
C1813      F1828   1.382   1_554  S
C1815      F1823   1.385       .  S
C1815      F1824   1.383       .  S
C1815      F1825   1.380       .  S
C1829      C1830   1.407       .  A
C1829      C1834   1.413       .  A
C1829      H1839   1.083       .  S
C1830      C1835   1.489       .  S
C1830      C1831   1.412       .  A
C1831      C1832   1.406       .  A
C1831      C1836   1.521       .  S
C1832      C1833   1.412       .  A
C1832      H1837   1.083       .  S
C1833      C1834   1.417       .  A
C1834      C1838   1.515       .  S
C1835      C1840   1.417       .  A
C1835      C1844   1.408       .  A
C1836      F1852   1.382       .  S
C1836      F1853   1.381       .  S
C1836      F1854   1.385       .  S
C1838      F1849   1.383       .  S
C1838      F1850   1.385       .  S
C1838      F1851   1.383       .  S
C1840      C1841   1.406       .  A
C1840      C1845   1.520       .  S
C1841      C1842   1.403       .  A
C1841      H1846   1.084       .  S
C1842      C1843   1.411       .  A
C1843      C1844   1.411       .  A
C1843      C1847   1.516       .  S
C1844      H1848   1.083       .  S
C1845      F1858   1.385       .  S
C1845      F1859   1.382       .  S
C1845      F1860   1.381       .  S
C1847      F1855   1.384       .  S
C1847      F1856   1.382       .  S
C1847      F1857   1.384       .  S
C1861      C1862   1.404       .  A
C1861      C1866   1.411       .  A
C1861      H1871   1.083       .  S
C1862      C1867   1.493       .  S
C1862      C1863   1.416       .  A
C1863      C1864   1.413       .  A
C1863      C1868   1.519       .  S
C1864      C1865   1.406       .  A
C1864      H1869   1.083       .  S
C1865      C1866   1.415       .  A
C1866      C1870   1.516       .  S
C1867      C1872   1.420       .  A
C1867      C1876   1.402       .  A
C1868      F1884   1.382       .  S
C1868      F1885   1.382       .  S
C1868      F1886   1.384       .  S
C1870      F1881   1.383       .  S
C1870      F1882   1.384       .  S
C1870      F1883   1.383       .  S
C1872      C1873   1.410       .  A
C1872      C1877   1.519       .  S
C1873      C1874   1.402       .  A
C1873      H1878   1.083       .  S
C1874      C1875   1.422       .  A
C1875      C1876   1.410       .  A
C1875      C1879   1.521       .  S
C1876      H1880   1.083       .  S
C1877      F1890   1.385       .  S
C1877      F1891   1.382       .  S
C1877      F1892   1.381       .  S
C1879      F1887   1.380       .  S
C1879      F1888   1.384       .  S
C1879      F1889   1.384       .  S
C1893      C1894   1.401       .  A
C1893      C1898   1.416       .  A
C1893      H1903   1.083       .  S
C1894      C1899   1.500       .  S
C1894      C1895   1.415       .  A
C1895      C1896   1.410       .  A
C1895      C1900   1.520       .  S
C1896      C1897   1.412       .  A
C1896      H1901   1.081       .  S
C1897      C1898   1.434       .  A
C1898      C1902   1.523       .  S
C1899      C1904   1.412       .  A
C1899      C1908   1.404       .  A
C1900      F1916   1.382       .  S
C1900      F1917   1.382       .  S
C1900      F1918   1.385       .  S
C1902      F1913   1.385       .  S
C1902      F1914   1.383       .  S
C1902      F1915   1.383       .  S
C1904      C1905   1.409       .  A
C1904      C1909   1.521       .  S
C1905      C1906   1.417       .  A
C1905      H1910   1.081       .  S
C1906      C1907   1.428       .  A
C1907      C1908   1.418       .  A
C1907      C1911   1.518       .  S
C1908      H1912   1.083       .  S
C1909      F1922   1.384       .  S
C1909      F1923   1.382       .  S
C1909      F1924   1.382       .  S
C1911      F1919   1.385       .  S
C1911      F1920   1.383       .  S
C1911      F1921   1.383       .  S
C1925      C1926   1.403       .  A
C1925      C1930   1.414       .  A
C1925      H1935   1.083       .  S
C1926      C1931   1.484       .  S
C1926      C1927   1.408       .  A
C1927      C1928   1.400       .  A
C1927      C1932   1.522       .  S
C1928      C1929   1.415       .  A
C1928      H1933   1.080       .  S
C1929      C1930   1.427       .  A
C1930      C1934   1.519       .  S
C1931      C1936   1.416       .  A
C1931      C1940   1.402       .  A
C1932      F1948   1.382       .  S
C1932      F1949   1.382       .  S
C1932      F1950   1.384       .  S
C1934      F1945   1.385       .  S
C1934      F1946   1.382       .  S
C1934      F1947   1.383       .  S
C1936      C1937   1.408       .  A
C1936      C1941   1.520       .  S
C1937      C1938   1.405       .  A
C1937      H1942   1.084       .  S
C1938      C1939   1.414       .  A
C1939      C1940   1.405       .  A
C1939      C1943   1.516       .  S
C1940      H1944   1.083       .  S
C1941      F1954   1.385       .  S
C1941      F1955   1.382       .  S
C1941      F1956   1.383       .  S
C1943      F1951   1.381       .  S
C1943      F1952   1.384       .  S
C1943      F1953   1.385       .  S
C1957      C1958   1.404       .  A
C1957      C1962   1.412       .  A
C1957      H1967   1.083       .  S
C1958      C1963   1.488       .  S
C1958      C1959   1.416       .  A
C1959      C1960   1.403       .  A
C1959      C1964   1.523       .  S
C1960      C1961   1.407       .  A
C1960      H1965   1.083       .  S
C1961      C1962   1.421       .  A
C1962      C1966   1.517       .  S
C1963      C1968   1.419       .  A
C1963      C1972   1.397       .  A
C1964      F1980   1.381       .  S
C1964      F1981   1.383       .  S
C1964      F1982   1.384       .  S
C1966      F1977   1.385       .  S
C1966      F1978   1.382       .  S
C1966      F1979   1.383       .  S
C1968      C1969   1.411       .  A
C1968      C1973   1.520       .  S
C1969      C1970   1.407       .  A
C1969      H1974   1.083       .  S
C1970      C1971   1.423       .  A
C1971      C1972   1.401       .  A
C1971      C1975   1.519       .  S
C1972      H1976   1.085       .  S
C1973      F1986   1.385       .  S
C1973      F1987   1.381       .  S
C1973      F1988   1.383       .  S
C1975      F1983   1.384       .  S
C1975      F1984   1.382       .  S
C1975      F1985   1.381       .  S
C1989      C1990   1.397       .  A
C1989      C1994   1.405       .  A
C1989      H1999   1.083       .  S
C1990      C1995   1.477       .  S
C1990      C1991   1.413       .  A
C1991      C1992   1.402       .  A
C1991      C1996   1.520       .  S
C1992      C1993   1.408       .  A
C1992      H1997   1.083       .  S
C1993      C1994   1.425       .  A
C1994      C1998   1.518       .  S
C1995      C2000   1.416       .  A
C1995      C2004   1.400       .  A
C1996      F2012   1.382       .  S
C1996      F2013   1.382       .  S
C1996      F2014   1.386       .  S
C1998      F2009   1.385       .  S
C1998      F2010   1.382       .  S
C1998      F2011   1.382       .  S
C2000      C2001   1.405       .  A
C2000      C2005   1.521       .  S
C2001      C2002   1.404       .  A
C2001      H2006   1.083       .  S
C2002      C2003   1.416       .  A
C2003      C2004   1.404       .  A
C2003      C2007   1.517       .  S
C2004      H2008   1.083       .  S
C2005      F2018   1.384       .  S
C2005      F2019   1.383       .  S
C2005      F2020   1.383       .  S
C2007      F2015   1.384       .  S
C2007      F2016   1.384       .  S
C2007      F2017   1.382       .  S
C2021      C2022   1.398       .  A
C2021      C2026   1.405   1_556  A
C2021      H2031   1.083       .  S
C2022      C2027   1.474       .  S
C2022      C2023   1.410   1_556  A
C2023      C2024   1.402       .  A
C2023      C2028   1.521   1_554  S
C2024      C2025   1.412       .  A
C2024      H2029   1.081       .  S
C2025      C2026   1.426       .  A
C2026      C2030   1.521       .  S
C2027      C2032   1.416       .  A
C2027      C2036   1.398       .  A
C2028      F2044   1.382       .  S
C2028      F2045   1.381       .  S
C2028      F2046   1.385   1_556  S
C2030      F2041   1.385       .  S
C2030      F2042   1.383       .  S
C2030      F2043   1.382       .  S
C2032      C2033   1.405       .  A
C2032      C2037   1.520       .  S
C2033      C2034   1.401       .  A
C2033      H2038   1.084       .  S
C2034      C2035   1.418       .  A
C2035      C2036   1.399       .  A
C2035      C2039   1.520       .  S
C2036      H2040   1.085       .  S
C2037      F2050   1.385       .  S
C2037      F2051   1.382       .  S
C2037      F2052   1.382       .  S
C2039      F2047   1.380       .  S
C2039      F2048   1.384       .  S
C2039      F2049   1.383       .  S
C2053      C2054   1.400       .  A
C2053      C2058   1.412       .  A
C2053      H2063   1.083       .  S
C2054      C2059   1.498       .  S
C2054      C2055   1.417       .  A
C2055      C2056   1.413       .  A
C2055      C2060   1.519       .  S
C2056      C2057   1.409       .  A
C2056      H2061   1.083       .  S
C2057      C2058   1.429       .  A
C2058      C2062   1.520       .  S
C2059      C2064   1.419       .  A
C2059      C2068   1.405       .  A
C2060      F2076   1.382       .  S
C2060      F2077   1.383       .  S
C2060      F2078   1.384       .  S
C2062      F2073   1.385       .  S
C2062      F2074   1.383       .  S
C2062      F2075   1.383       .  S
C2064      C2065   1.411       .  A
C2064      C2069   1.520       .  S
C2065      C2066   1.406       .  A
C2065      H2070   1.083       .  S
C2066      C2067   1.417       .  A
C2067      C2068   1.412       .  A
C2067      C2071   1.517       .  S
C2068      H2072   1.083       .  S
C2069      F2082   1.385       .  S
C2069      F2083   1.381       .  S
C2069      F2084   1.383       .  S
C2071      F2079   1.385       .  S
C2071      F2080   1.381       .  S
C2071      F2081   1.384       .  S
C2085      C2086   1.405       .  A
C2085      C2090   1.415       .  A
C2085      H2095   1.083       .  S
C2086      C2091   1.491       .  S
C2086      C2087   1.411       .  A
C2087      C2088   1.407       .  A
C2087      C2092   1.521       .  S
C2088      C2089   1.415       .  A
C2088      H2093   1.083       .  S
C2089      C2090   1.422       .  A
C2090      C2094   1.516       .  S
C2091      C2096   1.418       .  A
C2091      C2100   1.407       .  A
C2092      F2108   1.383       .  S
C2092      F2109   1.382       .  S
C2092      F2110   1.385       .  S
C2094      F2105   1.385       .  S
C2094      F2106   1.383       .  S
C2094      F2107   1.382       .  S
C2096      C2097   1.406       .  A
C2096      C2101   1.520       .  S
C2097      C2098   1.403       .  A
C2097      H2102   1.084       .  S
C2098      C2099   1.410       .  A
C2099      C2100   1.411       .  A
C2099      C2103   1.514       .  S
C2100      H2104   1.083       .  S
C2101      F2114   1.385       .  S
C2101      F2115   1.382       .  S
C2101      F2116   1.382       .  S
C2103      F2111   1.383       .  S
C2103      F2112   1.384       .  S
C2103      F2113   1.384       .  S
C2117      C2118   1.405       .  A
C2117      C2122   1.409       .  A
C2117      H2127   1.083       .  S
C2118      C2123   1.484       .  S
C2118      C2119   1.416       .  A
C2119      C2120   1.405       .  A
C2119      C2124   1.520       .  S
C2120      C2121   1.402       .  A
C2120      H2125   1.084       .  S
C2121      C2122   1.413       .  A
C2122      C2126   1.516       .  S
C2123      C2128   1.412       .  A
C2123      C2132   1.402       .  A
C2124      F2140   1.382       .  S
C2124      F2141   1.382       .  S
C2124      F2142   1.385       .  S
C2126      F2137   1.385       .  S
C2126      F2138   1.383       .  S
C2126      F2139   1.383       .  S
C2128      C2129   1.407       .  A
C2128      C2133   1.521       .  S
C2129      C2130   1.413       .  A
C2129      H2134   1.083       .  S
C2130      C2131   1.420       .  A
C2131      C2132   1.409       .  A
C2131      C2135   1.517       .  S
C2132      H2136   1.083       .  S
C2133      F2146   1.385       .  S
C2133      F2147   1.383       .  S
C2133      F2148   1.382       .  S
C2135      F2143   1.383       .  S
C2135      F2144   1.382       .  S
C2135      F2145   1.385       .  S
C2149      C2150   1.403       .  A
C2149      C2154   1.409       .  A
C2149      H2159   1.083       .  S
C2150      C2155   1.482       .  S
C2150      C2151   1.412       .  A
C2151      C2152   1.404       .  A
C2151      C2156   1.520       .  S
C2152      C2153   1.407       .  A
C2152      H2157   1.084       .  S
C2153      C2154   1.417       .  A
C2154      C2158   1.516       .  S
C2155      C2160   1.412       .  A
C2155      C2164   1.404       .  A
C2156      F2172   1.382       .  S
C2156      F2173   1.382       .  S
C2156      F2174   1.384       .  S
C2158      F2169   1.385       .  S
C2158      F2170   1.383       .  S
C2158      F2171   1.381       .  S
C2160      C2161   1.405       .  A
C2160      C2165   1.520       .  S
C2161      C2162   1.408       .  A
C2161      H2166   1.084       .  S
C2162      C2163   1.414       .  A
C2163      C2164   1.408       .  A
C2163      C2167   1.516       .  S
C2164      H2168   1.083       .  S
C2165      F2178   1.384       .  S
C2165      F2179   1.383       .  S
C2165      F2180   1.382       .  S
C2167      F2175   1.384       .  S
C2167      F2176   1.384       .  S
C2167      F2177   1.382       .  S
C2181      C2182   1.405       .  A
C2181      C2186   1.413       .  A
C2181      H2191   1.083       .  S
C2182      C2187   1.499       .  S
C2182      C2183   1.420       .  A
C2183      C2184   1.413       .  A
C2183      C2188   1.519       .  S
C2184      C2185   1.403       .  A
C2184      H2189   1.083       .  S
C2185      C2186   1.417       .  A
C2186      C2190   1.518       .  S
C2187      C2192   1.416       .  A
C2187      C2196   1.409       .  A
C2188      F2204   1.382       .  S
C2188      F2205   1.383       .  S
C2188      F2206   1.384       .  S
C2190      F2201   1.384       .  S
C2190      F2202   1.381       .  S
C2190      F2203   1.383       .  S
C2192      C2193   1.407       .  A
C2192      C2197   1.519       .  S
C2193      C2194   1.405       .  A
C2193      H2198   1.083       .  S
C2194      C2195   1.415       .  A
C2195      C2196   1.417       .  A
C2195      C2199   1.513       .  S
C2196      H2200   1.083       .  S
C2197      F2210   1.384       .  S
C2197      F2211   1.382       .  S
C2197      F2212   1.382       .  S
C2199      F2207   1.384       .  S
C2199      F2208   1.381       .  S
C2199      F2209   1.384       .  S
C2213      C2214   1.401       .  A
C2213      C2218   1.407       .  A
C2213      H2223   1.083       .  S
C2214      C2219   1.486       .  S
C2214      C2215   1.416       .  A
C2215      C2216   1.407       .  A
C2215      C2220   1.519       .  S
C2216      C2217   1.406       .  A
C2216      H2221   1.083       .  S
C2217      C2218   1.419       .  A
C2218      C2222   1.516       .  S
C2219      C2224   1.414       .  A
C2219      C2228   1.405       .  A
C2220      F2236   1.382       .  S
C2220      F2237   1.380       .  S
C2220      F2238   1.385       .  S
C2222      F2233   1.385       .  S
C2222      F2234   1.383       .  S
C2222      F2235   1.380       .  S
C2224      C2225   1.407       .  A
C2224      C2229   1.521       .  S
C2225      C2226   1.409       .  A
C2225      H2230   1.083       .  S
C2226      C2227   1.417       .  A
C2227      C2228   1.411       .  A
C2227      C2231   1.518       .  S
C2228      H2232   1.083       .  S
C2229      F2242   1.385       .  S
C2229      F2243   1.382       .  S
C2229      F2244   1.381       .  S
C2231      F2239   1.384       .  S
C2231      F2240   1.384       .  S
C2231      F2241   1.382       .  S
C2245      C2246   1.399       .  A
C2245      C2250   1.405       .  A
C2245      H2255   1.083       .  S
C2246      C2251   1.481       .  S
C2246      C2247   1.415       .  A
C2247      C2248   1.409       .  A
C2247      C2252   1.520       .  S
C2248      C2249   1.405       .  A
C2248      H2253   1.083       .  S
C2249      C2250   1.418       .  A
C2250      C2254   1.517       .  S
C2251      C2256   1.408       .  A
C2251      C2260   1.401       .  A
C2252      F2268   1.382       .  S
C2252      F2269   1.383       .  S
C2252      F2270   1.384       .  S
C2254      F2265   1.385       .  S
C2254      F2266   1.381       .  S
C2254      F2267   1.381       .  S
C2256      C2257   1.400       .  A
C2256      C2261   1.523       .  S
C2257      C2258   1.415       .  A
C2257      H2262   1.081       .  S
C2258      C2259   1.428       .  A
C2259      C2260   1.412       .  A
C2259      C2263   1.520       .  S
C2260      H2264   1.083       .  S
C2261      F2274   1.384       .  S
C2261      F2275   1.382       .  S
C2261      F2276   1.382       .  S
C2263      F2271   1.385       .  S
C2263      F2272   1.382       .  S
C2263      F2273   1.381       .  S
C2277      C2278   1.407       .  A
C2277      C2282   1.413       .  A
C2277      H2287   1.083       .  S
C2278      C2283   1.490       .  S
C2278      C2279   1.413       .  A
C2279      C2280   1.407       .  A
C2279      C2284   1.520       .  S
C2280      C2281   1.408       .  A
C2280      H2285   1.084       .  S
C2281      C2282   1.415       .  A
C2282      C2286   1.515       .  S
C2283      C2288   1.413       .  A
C2283      C2292   1.407       .  A
C2284      F2300   1.382       .  S
C2284      F2301   1.382       .  S
C2284      F2302   1.384       .  S
C2286      F2297   1.385       .  S
C2286      F2298   1.384       .  S
C2286      F2299   1.382       .  S
C2288      C2289   1.405       .  A
C2288      C2293   1.520       .  S
C2289      C2290   1.409       .  A
C2289      H2294   1.084       .  S
C2290      C2291   1.415       .  A
C2291      C2292   1.413       .  A
C2291      C2295   1.515       .  S
C2292      H2296   1.083       .  S
C2293      F2306   1.385       .  S
C2293      F2307   1.382       .  S
C2293      F2308   1.382       .  S
C2295      F2303   1.383       .  S
C2295      F2304   1.383       .  S
C2295      F2305   1.384       .  S
C2309      C2310   1.405   1_556  A
C2309      C2314   1.409   1_556  A
C2309      H2319   1.084       .  S
C2310      C2315   1.493   1_554  S
C2310      C2311   1.418       .  A
C2311      C2312   1.406       .  A
C2311      C2316   1.520       .  S
C2312      C2313   1.402       .  A
C2312      H2317   1.084       .  S
C2313      C2314   1.420       .  A
C2314      C2318   1.519       .  S
C2315      C2320   1.415       .  A
C2315      C2324   1.408       .  A
C2316      F2332   1.381       .  S
C2316      F2333   1.383       .  S
C2316      F2334   1.385       .  S
C2318      F2329   1.383       .  S
C2318      F2330   1.383   1_554  S
C2318      F2331   1.379       .  S
C2320      C2321   1.404       .  A
C2320      C2325   1.522   1_556  S
C2321      C2322   1.409       .  A
C2321      H2326   1.083       .  S
C2322      C2323   1.416       .  A
C2323      C2324   1.415       .  A
C2323      C2327   1.515       .  S
C2324      H2328   1.083       .  S
C2325      F2338   1.385       .  S
C2325      F2339   1.381       .  S
C2325      F2340   1.383       .  S
C2327      F2335   1.382       .  S
C2327      F2336   1.384       .  S
C2327      F2337   1.384       .  S
C2341      C2342   1.408       .  A
C2341      C2346   1.414       .  A
C2341      H2351   1.083       .  S
C2342      C2347   1.488       .  S
C2342      C2343   1.412       .  A
C2343      C2344   1.402       .  A
C2343      C2348   1.522       .  S
C2344      C2345   1.411       .  A
C2344      H2349   1.083       .  S
C2345      C2346   1.417       .  A
C2346      C2350   1.516       .  S
C2347      C2352   1.416       .  A
C2347      C2356   1.409       .  A
C2348      F2364   1.382       .  S
C2348      F2365   1.381       .  S
C2348      F2366   1.385       .  S
C2350      F2361   1.384       .  S
C2350      F2362   1.383       .  S
C2350      F2363   1.383       .  S
C2352      C2353   1.404       .  A
C2352      C2357   1.519       .  S
C2353      C2354   1.402       .  A
C2353      H2358   1.084       .  S
C2354      C2355   1.409       .  A
C2355      C2356   1.410       .  A
C2355      C2359   1.515       .  S
C2356      H2360   1.083       .  S
C2357      F2370   1.385       .  S
C2357      F2371   1.382       .  S
C2357      F2372   1.382       .  S
C2359      F2367   1.384       .  S
C2359      F2368   1.382       .  S
C2359      F2369   1.384       .  S
C2373      C2374   1.404       .  A
C2373      C2378   1.404       .  A
C2373      H2383   1.083   1_565  S
C2374      C2379   1.477   1_565  S
C2374      C2375   1.412       .  A
C2375      C2376   1.404       .  A
C2375      C2380   1.520       .  S
C2376      C2377   1.406       .  A
C2376      H2381   1.084       .  S
C2377      C2378   1.413       .  A
C2378      C2382   1.516       .  S
C2379      C2384   1.410       .  A
C2379      C2388   1.406       .  A
C2380      F2396   1.381       .  S
C2380      F2397   1.381       .  S
C2380      F2398   1.384       .  S
C2382      F2393   1.384       .  S
C2382      F2394   1.383       .  S
C2382      F2395   1.382       .  S
C2384      C2385   1.398       .  A
C2384      C2389   1.520       .  S
C2385      C2386   1.406       .  A
C2385      H2390   1.083       .  S
C2386      C2387   1.415       .  A
C2387      C2388   1.409       .  A
C2387      C2391   1.516       .  S
C2388      H2392   1.083       .  S
C2389      F2402   1.384       .  S
C2389      F2403   1.382       .  S
C2389      F2404   1.381       .  S
C2391      F2399   1.382       .  S
C2391      F2400   1.383       .  S
C2391      F2401   1.385       .  S
C2405      C2406   1.404       .  A
C2405      C2410   1.413       .  A
C2405      H2415   1.082       .  S
C2406      C2411   1.500       .  S
C2406      C2407   1.420       .  A
C2407      C2408   1.413       .  A
C2407      C2412   1.518       .  S
C2408      C2409   1.405       .  A
C2408      H2413   1.083       .  S
C2409      C2410   1.418       .  A
C2410      C2414   1.515       .  S
C2411      C2416   1.418       .  A
C2411      C2420   1.406       .  A
C2412      F2428   1.382       .  S
C2412      F2429   1.384       .  S
C2412      F2430   1.384       .  S
C2414      F2425   1.384       .  S
C2414      F2426   1.379       .  S
C2414      F2427   1.383       .  S
C2416      C2417   1.413       .  A
C2416      C2421   1.518       .  S
C2417      C2418   1.407       .  A
C2417      H2422   1.083       .  S
C2418      C2419   1.417       .  A
C2419      C2420   1.412       .  A
C2419      C2423   1.518       .  S
C2420      H2424   1.083       .  S
C2421      F2434   1.384       .  S
C2421      F2435   1.382       .  S
C2421      F2436   1.383       .  S
C2423      F2431   1.382       .  S
C2423      F2432   1.384       .  S
C2423      F2433   1.384       .  S
C2437      C2438   1.396       .  A
C2437      C2442   1.401       .  A
C2437      H2447   1.083       .  S
C2438      C2443   1.473       .  S
C2438      C2439   1.413       .  A
C2439      C2440   1.403       .  A
C2439      C2444   1.519       .  S
C2440      C2441   1.406       .  A
C2440      H2445   1.083       .  S
C2441      C2442   1.423       .  A
C2442      C2446   1.519       .  S
C2443      C2448   1.413       .  A
C2443      C2452   1.401       .  A
C2444      F2460   1.382       .  S
C2444      F2461   1.382       .  S
C2444      F2462   1.384       .  S
C2446      F2457   1.382       .  S
C2446      F2458   1.384       .  S
C2446      F2459   1.384       .  S
C2448      C2449   1.403       .  A
C2448      C2453   1.521       .  S
C2449      C2450   1.405       .  A
C2449      H2454   1.083       .  S
C2450      C2451   1.415       .  A
C2451      C2452   1.403       .  A
C2451      C2455   1.518       .  S
C2452      H2456   1.083       .  S
C2453      F2466   1.384       .  S
C2453      F2467   1.383       .  S
C2453      F2468   1.382       .  S
C2455      F2463   1.385       .  S
C2455      F2464   1.384       .  S
C2455      F2465   1.381       .  S
C2469      C2470   1.397       .  A
C2469      C2474   1.402       .  A
C2469      H2479   1.083       .  S
C2470      C2475   1.475       .  S
C2470      C2471   1.413       .  A
C2471      C2472   1.405       .  A
C2471      C2476   1.521       .  S
C2472      C2473   1.407       .  A
C2472      H2477   1.083       .  S
C2473      C2474   1.423       .  A
C2474      C2478   1.519       .  S
C2475      C2480   1.413       .  A
C2475      C2484   1.404       .  A
C2476      F2492   1.381       .  S
C2476      F2493   1.381       .  S
C2476      F2494   1.384       .  S
C2478      F2489   1.384       .  S
C2478      F2490   1.383       .  S
C2478      F2491   1.383       .  S
C2480      C2481   1.400       .  A
C2480      C2485   1.522       .  S
C2481      C2482   1.404       .  A
C2481      H2486   1.083       .  S
C2482      C2483   1.415       .  A
C2483      C2484   1.406       .  A
C2483      C2487   1.518       .  S
C2484      H2488   1.083       .  S
C2485      F2498   1.385       .  S
C2485      F2499   1.382       .  S
C2485      F2500   1.381       .  S
C2487      F2495   1.385       .  S
C2487      F2496   1.383       .  S
C2487      F2497   1.382       .  S
C2501      C2502   1.402       .  A
C2501      C2506   1.405       .  A
C2501      H2511   1.085       .  S
C2502      C2507   1.485       .  S
C2502      C2503   1.414       .  A
C2503      C2504   1.408       .  A
C2503      C2508   1.520       .  S
C2504      C2505   1.407       .  A
C2504      H2509   1.084       .  S
C2505      C2506   1.417       .  A
C2506      C2510   1.516       .  S
C2507      C2512   1.409       .  A
C2507      C2516   1.406       .  A
C2508      F2524   1.383       .  S
C2508      F2525   1.382       .  S
C2508      F2526   1.384       .  S
C2510      F2521   1.383       .  S
C2510      F2522   1.383       .  S
C2510      F2523   1.382       .  S
C2512      C2513   1.400       .  A
C2512      C2517   1.523       .  S
C2513      C2514   1.414       .  A
C2513      H2518   1.079       .  S
C2514      C2515   1.421       .  A
C2515      C2516   1.416       .  A
C2515      C2519   1.516       .  S
C2516      H2520   1.083       .  S
C2517      F2530   1.385       .  S
C2517      F2531   1.382       .  S
C2517      F2532   1.382       .  S
C2519      F2527   1.384       .  S
C2519      F2528   1.384       .  S
C2519      F2529   1.383       .  S
C2533      C2534   1.408       .  A
C2533      C2538   1.412       .  A
C2533      H2543   1.083       .  S
C2534      C2539   1.486   1_545  S
C2534      C2535   1.412       .  A
C2535      C2536   1.403       .  A
C2535      C2540   1.520       .  S
C2536      C2537   1.406       .  A
C2536      H2541   1.084       .  S
C2537      C2538   1.414       .  A
C2538      C2542   1.516       .  S
C2539      C2544   1.414       .  A
C2539      C2548   1.406       .  A
C2540      F2556   1.382       .  S
C2540      F2557   1.381       .  S
C2540      F2558   1.385       .  S
C2542      F2553   1.385       .  S
C2542      F2554   1.383       .  S
C2542      F2555   1.382       .  S
C2544      C2545   1.405       .  A
C2544      C2549   1.520       .  S
C2545      C2546   1.406       .  A
C2545      H2550   1.084       .  S
C2546      C2547   1.414       .  A
C2547      C2548   1.409       .  A
C2547      C2551   1.516       .  S
C2548      H2552   1.083   1_565  S
C2549      F2562   1.385       .  S
C2549      F2563   1.381       .  S
C2549      F2564   1.381       .  S
C2551      F2559   1.383       .  S
C2551      F2560   1.382       .  S
C2551      F2561   1.385       .  S
C2565      C2566   1.407   1_554  A
C2565      C2570   1.415       .  A
C2565      H2575   1.083       .  S
C2566      C2571   1.500       .  S
C2566      C2567   1.416       .  A
C2567      C2568   1.413       .  A
C2567      C2572   1.519       .  S
C2568      C2569   1.409   1_556  A
C2568      H2573   1.083       .  S
C2569      C2570   1.417       .  A
C2570      C2574   1.517       .  S
C2571      C2576   1.420       .  A
C2571      C2580   1.404       .  A
C2572      F2588   1.382       .  S
C2572      F2589   1.382       .  S
C2572      F2590   1.384       .  S
C2574      F2585   1.384       .  S
C2574      F2586   1.383       .  S
C2574      F2587   1.384       .  S
C2576      C2577   1.414       .  A
C2576      C2581   1.519       .  S
C2577      C2578   1.404       .  A
C2577      H2582   1.083       .  S
C2578      C2579   1.419       .  A
C2579      C2580   1.413       .  A
C2579      C2583   1.518       .  S
C2580      H2584   1.083       .  S
C2581      F2594   1.384       .  S
C2581      F2595   1.382   1_556  S
C2581      F2596   1.382       .  S
C2583      F2591   1.382       .  S
C2583      F2592   1.383       .  S
C2583      F2593   1.385       .  S
C2597      C2598   1.402       .  A
C2597      C2602   1.410       .  A
C2597      H2607   1.083       .  S
C2598      C2603   1.490       .  S
C2598      C2599   1.415       .  A
C2599      C2600   1.407       .  A
C2599      C2604   1.519       .  S
C2600      C2601   1.408       .  A
C2600      H2605   1.083       .  S
C2601      C2602   1.423       .  A
C2602      C2606   1.519       .  S
C2603      C2608   1.416       .  A
C2603      C2612   1.402       .  A
C2604      F2620   1.382       .  S
C2604      F2621   1.382       .  S
C2604      F2622   1.385       .  S
C2606      F2617   1.385       .  S
C2606      F2618   1.383       .  S
C2606      F2619   1.382       .  S
C2608      C2609   1.410       .  A
C2608      C2613   1.519       .  S
C2609      C2610   1.406       .  A
C2609      H2614   1.083       .  S
C2610      C2611   1.418       .  A
C2611      C2612   1.410       .  A
C2611      C2615   1.516       .  S
C2612      H2616   1.083       .  S
C2613      F2626   1.383       .  S
C2613      F2627   1.382       .  S
C2613      F2628   1.382       .  S
C2615      F2623   1.385       .  S
C2615      F2624   1.382       .  S
C2615      F2625   1.382       .  S
C2629      C2630   1.410       .  A
C2629      C2634   1.416       .  A
C2629      H2639   1.083       .  S
C2630      C2635   1.493       .  S
C2630      C2631   1.417       .  A
C2631      C2632   1.404       .  A
C2631      C2636   1.520       .  S
C2632      C2633   1.401       .  A
C2632      H2637   1.084       .  S
C2633      C2634   1.413       .  A
C2634      C2638   1.515       .  S
C2635      C2640   1.415       .  A
C2635      C2644   1.405       .  A
C2636      F2652   1.381       .  S
C2636      F2653   1.381       .  S
C2636      F2654   1.385       .  S
C2638      F2649   1.385       .  S
C2638      F2650   1.383       .  S
C2638      F2651   1.383       .  S
C2640      C2641   1.410       .  A
C2640      C2645   1.521       .  S
C2641      C2642   1.412       .  A
C2641      H2646   1.083       .  S
C2642      C2643   1.418       .  A
C2643      C2644   1.412       .  A
C2643      C2647   1.517       .  S
C2644      H2648   1.083       .  S
C2645      F2658   1.385       .  S
C2645      F2659   1.382       .  S
C2645      F2660   1.381       .  S
C2647      F2655   1.384       .  S
C2647      F2656   1.383       .  S
C2647      F2657   1.384       .  S
C2661      C2662   1.407       .  A
C2661      C2666   1.412       .  A
C2661      H2671   1.083       .  S
C2662      C2667   1.492       .  S
C2662      C2663   1.417       .  A
C2663      C2664   1.407       .  A
C2663      C2668   1.519       .  S
C2664      C2665   1.402       .  A
C2664      H2669   1.084       .  S
C2665      C2666   1.413       .  A
C2666      C2670   1.516       .  S
C2667      C2672   1.413       .  A
C2667      C2676   1.404       .  A
C2668      F2684   1.383       .  S
C2668      F2685   1.382       .  S
C2668      F2686   1.385       .  S
C2670      F2681   1.384       .  S
C2670      F2682   1.383       .  S
C2670      F2683   1.384       .  S
C2672      C2673   1.407       .  A
C2672      C2677   1.519       .  S
C2673      C2674   1.410       .  A
C2673      H2678   1.083       .  S
C2674      C2675   1.423       .  A
C2675      C2676   1.414       .  A
C2675      C2679   1.517       .  S
C2676      H2680   1.083       .  S
C2677      F2690   1.385       .  S
C2677      F2691   1.382       .  S
C2677      F2692   1.382       .  S
C2679      F2687   1.383       .  S
C2679      F2688   1.382       .  S
C2679      F2689   1.385       .  S
C2693      C2694   1.406       .  A
C2693      C2698   1.414       .  A
C2693      H2703   1.083   1_655  S
C2694      C2699   1.490   1_655  S
C2694      C2695   1.412       .  A
C2695      C2696   1.407       .  A
C2695      C2700   1.519       .  S
C2696      C2697   1.409       .  A
C2696      H2701   1.083       .  S
C2697      C2698   1.418       .  A
C2698      C2702   1.516       .  S
C2699      C2704   1.419       .  A
C2699      C2708   1.406       .  A
C2700      F2716   1.383       .  S
C2700      F2717   1.382       .  S
C2700      F2718   1.385       .  S
C2702      F2713   1.382       .  S
C2702      F2714   1.385       .  S
C2702      F2715   1.384       .  S
C2704      C2705   1.408       .  A
C2704      C2709   1.520       .  S
C2705      C2706   1.407       .  A
C2705      H2710   1.085       .  S
C2706      C2707   1.413       .  A
C2707      C2708   1.410       .  A
C2707      C2711   1.515       .  S
C2708      H2712   1.083       .  S
C2709      F2722   1.384       .  S
C2709      F2723   1.384       .  S
C2709      F2724   1.381       .  S
C2711      F2719   1.383       .  S
C2711      F2720   1.382       .  S
C2711      F2721   1.384       .  S
C2725      C2726   1.406       .  A
C2725      C2730   1.410       .  A
C2725      H2735   1.083       .  S
C2726      C2731   1.487       .  S
C2726      C2727   1.416       .  A
C2727      C2728   1.404       .  A
C2727      C2732   1.522       .  S
C2728      C2729   1.407       .  A
C2728      H2733   1.083       .  S
C2729      C2730   1.414       .  A
C2730      C2734   1.516       .  S
C2731      C2736   1.419       .  A
C2731      C2740   1.401       .  A
C2732      F2748   1.381       .  S
C2732      F2749   1.383       .  S
C2732      F2750   1.385       .  S
C2734      F2745   1.385       .  S
C2734      F2746   1.381       .  S
C2734      F2747   1.384       .  S
C2736      C2737   1.408       .  A
C2736      C2741   1.519       .  S
C2737      C2738   1.402       .  A
C2737      H2742   1.083       .  S
C2738      C2739   1.418       .  A
C2739      C2740   1.405       .  A
C2739      C2743   1.518       .  S
C2740      H2744   1.083       .  S
C2741      F2754   1.385       .  S
C2741      F2755   1.382       .  S
C2741      F2756   1.382       .  S
C2743      F2751   1.385       .  S
C2743      F2752   1.380   1_556  S
C2743      F2753   1.384   1_556  S
C2757      C2758   1.398       .  A
C2757      C2762   1.408       .  A
C2757      H2767   1.083       .  S
C2758      C2763   1.486       .  S
C2758      C2759   1.411       .  A
C2759      C2760   1.407       .  A
C2759      C2764   1.519       .  S
C2760      C2761   1.415       .  A
C2760      H2765   1.082       .  S
C2761      C2762   1.427       .  A
C2762      C2766   1.513       .  S
C2763      C2768   1.416       .  A
C2763      C2772   1.404       .  A
C2764      F2780   1.382       .  S
C2764      F2781   1.381       .  S
C2764      F2782   1.385       .  S
C2766      F2777   1.385       .  S
C2766      F2778   1.382       .  S
C2766      F2779   1.380       .  S
C2768      C2769   1.407       .  A
C2768      C2773   1.520       .  S
C2769      C2770   1.404       .  A
C2769      H2774   1.083       .  S
C2770      C2771   1.417       .  A
C2771      C2772   1.409       .  A
C2771      C2775   1.518       .  S
C2772      H2776   1.083       .  S
C2773      F2786   1.384       .  S
C2773      F2787   1.382       .  S
C2773      F2788   1.381       .  S
C2775      F2783   1.385       .  S
C2775      F2784   1.384       .  S
C2775      F2785   1.382       .  S
C2789      C2790   1.404       .  A
C2789      C2794   1.413       .  A
C2789      H2799   1.083       .  S
C2790      C2795   1.494       .  S
C2790      C2791   1.416       .  A
C2791      C2792   1.407       .  A
C2791      C2796   1.520       .  S
C2792      C2793   1.408       .  A
C2792      H2797   1.083       .  S
C2793      C2794   1.421       .  A
C2794      C2798   1.516       .  S
C2795      C2800   1.416       .  A
C2795      C2804   1.405   1_554  A
C2796      F2812   1.382       .  S
C2796      F2813   1.382       .  S
C2796      F2814   1.385       .  S
C2798      F2809   1.383       .  S
C2798      F2810   1.384       .  S
C2798      F2811   1.382       .  S
C2800      C2801   1.409       .  A
C2800      C2805   1.518       .  S
C2801      C2802   1.404   1_554  A
C2801      H2806   1.083       .  S
C2802      C2803   1.417       .  A
C2803      C2804   1.412       .  A
C2803      C2807   1.517       .  S
C2804      H2808   1.083       .  S
C2805      F2818   1.383       .  S
C2805      F2819   1.382       .  S
C2805      F2820   1.382       .  S
C2807      F2815   1.382       .  S
C2807      F2816   1.384       .  S
C2807      F2817   1.384       .  S
C2821      C2822   1.403       .  A
C2821      C2826   1.416       .  A
C2821      H2831   1.083       .  S
C2822      C2827   1.492       .  S
C2822      C2823   1.412       .  A
C2823      C2824   1.404       .  A
C2823      C2828   1.522       .  S
C2824      C2825   1.415       .  A
C2824      H2829   1.081       .  S
C2825      C2826   1.429       .  A
C2826      C2830   1.520       .  S
C2827      C2832   1.418       .  A
C2827      C2836   1.402       .  A
C2828      F2844   1.381       .  S
C2828      F2845   1.383       .  S
C2828      F2846   1.385       .  S
C2830      F2841   1.383       .  S
C2830      F2842   1.385       .  S
C2830      F2843   1.383       .  S
C2832      C2833   1.410       .  A
C2832      C2837   1.519       .  S
C2833      C2834   1.404       .  A
C2833      H2838   1.083       .  S
C2834      C2835   1.419       .  A
C2835      C2836   1.408       .  A
C2835      C2839   1.519       .  S
C2836      H2840   1.083       .  S
C2837      F2850   1.384       .  S
C2837      F2851   1.382       .  S
C2837      F2852   1.383       .  S
C2839      F2847   1.381       .  S
C2839      F2848   1.384       .  S
C2839      F2849   1.384       .  S
C2853      C2854   1.401       .  A
C2853      C2858   1.411       .  A
C2853      H2863   1.083       .  S
C2854      C2859   1.490       .  S
C2854      C2855   1.415       .  A
C2855      C2856   1.406       .  A
C2855      C2860   1.521       .  S
C2856      C2857   1.408       .  A
C2856      H2861   1.083       .  S
C2857      C2858   1.424       .  A
C2858      C2862   1.515       .  S
C2859      C2864   1.419       .  A
C2859      C2868   1.399       .  A
C2860      F2876   1.381       .  S
C2860      F2877   1.383       .  S
C2860      F2878   1.384       .  S
C2862      F2873   1.383       .  S
C2862      F2874   1.385       .  S
C2862      F2875   1.382       .  S
C2864      C2865   1.411       .  A
C2864      C2869   1.520       .  S
C2865      C2866   1.406       .  A
C2865      H2870   1.083       .  S
C2866      C2867   1.423       .  A
C2867      C2868   1.405       .  A
C2867      C2871   1.520       .  S
C2868      H2872   1.084       .  S
C2869      F2882   1.384       .  S
C2869      F2883   1.382       .  S
C2869      F2884   1.383       .  S
C2871      F2879   1.382       .  S
C2871      F2880   1.382       .  S
C2871      F2881   1.384       .  S
C2885      C2886   1.404       .  A
C2885      C2890   1.410       .  A
C2885      H2895   1.083       .  S
C2886      C2891   1.485   1_455  S
C2886      C2887   1.412       .  A
C2887      C2888   1.407       .  A
C2887      C2892   1.519       .  S
C2888      C2889   1.408       .  A
C2888      H2893   1.084       .  S
C2889      C2890   1.417       .  A
C2890      C2894   1.515       .  S
C2891      C2896   1.413       .  A
C2891      C2900   1.406       .  A
C2892      F2908   1.382       .  S
C2892      F2909   1.382       .  S
C2892      F2910   1.384       .  S
C2894      F2905   1.385       .  S
C2894      F2906   1.382       .  S
C2894      F2907   1.382       .  S
C2896      C2897   1.404       .  A
C2896      C2901   1.521       .  S
C2897      C2898   1.408       .  A
C2897      H2902   1.084       .  S
C2898      C2899   1.416       .  A
C2899      C2900   1.412       .  A
C2899      C2903   1.516       .  S
C2900      H2904   1.083   1_655  S
C2901      F2914   1.385       .  S
C2901      F2915   1.382       .  S
C2901      F2916   1.382       .  S
C2903      F2911   1.383       .  S
C2903      F2912   1.382       .  S
C2903      F2913   1.385       .  S
