geometry optimzed in LAMMPS
_audit_creation_date              2020-11-30 
_audit_creation_method            'lammps2cif' 
_symmetry_space_group_name_H-M    'P1' 
_symmetry_Int_Tables_number       1 
_symmetry_cell_setting            triclinic 
loop_ 
_symmetry_equiv_pos_as_xyz 
  x,y,z 
_cell_length_a                    53.01356391396413 
_cell_length_b                    52.93789392659146 
_cell_length_c                    22.36673063079387 
_cell_angle_alpha                 85.2980564435483 
_cell_angle_beta                  93.77437004586898 
_cell_angle_gamma                 87.95563258550628 
loop_ 
_atom_site_label 
_atom_site_type_symbol 
_atom_site_fract_x 
_atom_site_fract_y 
_atom_site_fract_z 
_atom_site_charge 
Zr1        Zr  0.01614879  0.15202992  0.58774304     2.17510
O2          O  0.03599393  0.17579489  0.66577636    -0.51750
O3          O  0.48365603  0.15132468  0.66430899    -0.74960
O4          O  0.01702218  0.19755545  0.55461533    -0.81740
O5          O  0.03682116  0.08994433  0.65664511    -0.83490
O6          O  0.49626975  0.20629147  0.46207204    -0.79110
O7          O  0.05337556  0.12806947  0.64455779    -0.90750
O8          O  0.45236292  0.15631985  0.59521442    -0.76710
O9          O  0.47657436  0.15870894  0.52785811    -0.86200
O10         O  0.49417891  0.11344145  0.59985061    -0.85810
O11         O  0.02495720  0.16111576  0.48227641    -0.72650
O12         O  0.04234301  0.12076121  0.54574205    -0.84780
Zr13       Zr  0.49298208  0.09766130  0.39348414     2.26420
Zr14       Zr  0.48485957  0.16641889  0.42346562     2.06270
Zr15       Zr  0.01972420  0.08267955  0.55702344     2.10050
Zr16       Zr  0.45531244  0.12006368  0.53882316     1.78760
O17         O  0.05876739  0.05897976  0.54435375    -0.93590
O18         O  0.41546167  0.13908327  0.49113659    -0.41390
O19         O  0.48084604  0.08955353  0.49623434    -0.78030
O20         O  0.46480418  0.12644922  0.43694547    -0.96710
O21         O  0.01307534  0.13700765  0.38133823    -0.90020
O22         O  0.03161829  0.09124842  0.45593849    -0.92860
C23         C  0.45969810  0.15265768  0.65016338     1.00890
C24         C  0.05501997  0.10453827  0.66610941     1.13820
C25         C  0.50904113  0.21285807  0.50870518     1.04600
O26         O  0.44833674  0.19591413  0.41854461    -0.95010
O27         O  0.45256884  0.15710993  0.34464374    -0.90760
O28         O  0.46929435  0.12149445  0.31054286    -0.83900
C29         C  0.45160107  0.13851469  0.31092830     1.11240
O30         O  0.08418093  0.15764833  0.48059933    -0.96990
Zr31       Zr  0.05183651  0.13028206  0.44237489     1.88940
O32         O  0.02712673  0.08578448  0.33043746    -0.73640
O33         O  0.00143181  0.18944151  0.33688282    -0.52900
O34         O  0.05880410  0.16216889  0.36092563    -0.97580
O35         O  0.09305554  0.10895795  0.46956259    -0.54800
O36         O  0.06299354  0.10431467  0.36130098    -0.74150
C37         C  0.05093925  0.08943687  0.32795085     0.98190
O38         O  0.46310066  0.07654957  0.32830454    -0.62970
O39         O  0.51461978  0.04564461  0.62647271    -0.57780
O40         O  0.49443477  0.05233911  0.40934699    -0.94460
O41         O  0.98714788  0.06305521  0.49813120    -0.92890
O42         O  0.44876055  0.08778707  0.62037637    -0.93240
O43         O  0.41603346  0.09765945  0.54349072    -0.92030
C44         C  0.99377809  0.04610939  0.46467917     1.17030
H45         H  0.49190478  0.10804016  0.64135062     0.32980
H46         H  0.44821776  0.12538483  0.41771636     0.43830
H47         H  0.04184710  0.07735229  0.44404748     0.37350
H48         H  0.03463749  0.17608208  0.47658213     0.33830
H49         H  0.40833359  0.14960291  0.52099204     0.25620
H50         H  0.48881152  0.20352945  0.32536337     0.31560
H51         H  0.07302283  0.15501081  0.34022905     0.37470
H52         H  0.45182194  0.09572405  0.65852912     0.31930
H53         H  0.03157794  0.04135787  0.64673216     0.30810
H54         H  0.07185343  0.07183151  0.54428077     0.32490
H55         H  0.10407066  0.11537167  0.43809324     0.31450
H56         H  0.41894438  0.08232101  0.52191986     0.35450
H57         H  0.47345553  0.06559318  0.30473966     0.28190
H58         H  0.02336337  0.18930812  0.67260605     0.32420
H59         H  0.09493490  0.16171155  0.44684428     0.35270
H60         H  0.50438700  0.05185902  0.65814748     0.27880
H61         H  0.45376726  0.06474503  0.35456939     0.40750
H62         H  0.44315955  0.19544844  0.46034740     0.30810
H63         H  0.42031308  0.15173254  0.45932374     0.38420
H64         H  0.09080948  0.09102638  0.46164997     0.30270
H65         H  0.01644538  0.19777731  0.35356116     0.30340
H66         H  0.04982323  0.18479066  0.64661608     0.30600
Zr67       Zr  0.07072464  0.42053373  0.62484181     2.17510
O68         O  0.10611033  0.44305066  0.66749303    -0.51750
O69         O  0.03585582  0.42717573  0.69043746    -0.74960
O70         O  0.06169916  0.46424517  0.64541793    -0.81740
O71         O  0.11609975  0.36805112  0.64484240    -0.83490
O72         O  0.05130389  0.45132804  0.56065120    -0.79110
O73         O  0.09467423  0.39322597  0.70120089    -0.90750
O74         O  0.00022342  0.41699883  0.63749873    -0.76710
O75         O  0.03158338  0.42681753  0.56177347    -0.86200
O76         O  0.05173961  0.38025638  0.62702648    -0.85890
O77         O  0.08091662  0.43571057  0.52120454    -0.72650
O78         O  0.09906761  0.39433189  0.57454193    -0.84780
Zr79       Zr  0.04703095  0.37545646  0.41554099     2.26420
Zr80       Zr  0.04100326  0.44111422  0.46168362     2.06270
Zr81       Zr  0.08068354  0.35432374  0.57768319     2.10050
Zr82       Zr  0.01256410  0.38735251  0.56690675     1.78760
O83         O  0.11578438  0.32435912  0.56814582    -0.93590
O84         O  0.47038404  0.40469068  0.53260687    -0.41390
O85         O  0.04102429  0.36134008  0.51905892    -0.78030
O86         O  0.01895880  0.40216099  0.46469561    -0.96710
O87         O  0.06844337  0.41417329  0.41390326    -0.90020
O88         O  0.08707264  0.36721506  0.47425332    -0.92860
C89         C  0.01158530  0.42771068  0.68032443     1.00890
C90         C  0.11527852  0.38222421  0.68904200     1.13820
C91         C  0.05184245  0.46951732  0.59322266     1.04600
O92         O  0.00876203  0.47488690  0.44994844    -0.95010
O93         O  0.01068095  0.44048399  0.37745575    -0.90760
O94         O  0.01341817  0.40086500  0.34585410    -0.83900
C95         C  0.00376017  0.42407470  0.34161813     1.11240
O96         O  0.14264595  0.43206158  0.50682749    -0.96990
Zr97       Zr  0.10756223  0.40673540  0.47378891     1.88940
O98         O  0.07765560  0.38485158  0.33877513    -0.73640
O99         O  0.06284056  0.47246549  0.40044009    -0.52900
O100        O  0.11810649  0.44088650  0.40108800    -0.97580
O101        O  0.14587073  0.38116293  0.50694538    -0.54800
O102        O  0.11543814  0.38270986  0.39009366    -0.74150
C103        C  0.10182897  0.38681508  0.34129485     0.98190
O104        O  0.03237585  0.34812217  0.33900721    -0.62970
O105        O  0.07204406  0.32675891  0.66603392    -0.57780
O106        O  0.04213960  0.32973384  0.44287023    -0.94460
O107        O  0.06303406  0.31805220  0.53406156    -0.92890
O108        O  0.00358937  0.35799891  0.65173181    -0.93240
O109        O  0.48408366  0.35483081  0.53718213    -0.92030
C110        C  0.04937827  0.31321751  0.48714362     1.17030
H111        H  0.04932257  0.37376552  0.66777389     0.32980
H112        H  0.00200216  0.40369734  0.44612848     0.43830
H113        H  0.09683654  0.35378962  0.45864445     0.37350
H114        H  0.09017818  0.45118726  0.52086376     0.33830
H115        H  0.46020000  0.40207461  0.56798775     0.25620
H116        H  0.05372469  0.48887436  0.40344526     0.31560
H117        H  0.13335663  0.43443575  0.38296660     0.37470
H118        H  0.48861531  0.36580364  0.66839051     0.31930
H119        H  0.07721379  0.33628252  0.70080908     0.30810
H120        H  0.11962257  0.31619288  0.60932295     0.32490
H121        H  0.15553812  0.38049471  0.47066350     0.31450
H122        H  0.48802333  0.35208318  0.49547275     0.35450
H123        H  0.01369719  0.34890719  0.33952845     0.28190
H124        H  0.10088615  0.44959497  0.70523234     0.32420
H125        H  0.15680382  0.42812695  0.48188668     0.35270
H126        H  0.05336024  0.32660697  0.66553884     0.27880
H127        H  0.53580906  0.35737884  0.30029790     0.40750
H128        H  0.49529745  0.46820009  0.47470199     0.30810
H129        H  0.47227087  0.42327147  0.52733756     0.38420
H130        H  0.14006434  0.36371937  0.51474931     0.30270
H131        H  0.07958729  0.47392292  0.42174280     0.30340
H132        H  0.10834737  0.45814087  0.63942414     0.30600
Zr133      Zr  0.17292650  0.49866579  0.89818468     2.17510
O134        O  0.19631761  0.01432940  0.81338922    -0.51750
O135        O  0.17311620  0.46393373  0.82844026    -0.74960
O136        O  0.21824998  0.50222554  0.93032038    -0.81740
O137        O  0.10821065  0.03091861  0.84019397    -0.83490
O138        O  0.22629505  0.48349920  0.02541487    -0.79110
O139        O  0.15031645  0.03411716  0.82959227    -0.90750
O140        O  0.17664804  0.43132400  0.89698072    -0.76710
O141        O  0.17968764  0.46042442  0.96474703    -0.86200
O142        O  0.13517939  0.47546017  0.88885646    -0.85890
O143        O  0.18041408  0.01067189  0.00111816    -0.72650
O144        O  0.14067345  0.02523265  0.93448518    -0.84780
Zr145      Zr  0.11633466  0.47802230  0.09140767     2.26420
Zr146      Zr  0.18691314  0.47173303  0.06623052     2.06270
Zr147      Zr  0.10340229  0.00166744  0.92444618     2.10050
Zr148      Zr  0.14165948  0.43790849  0.95701234     1.78760
O149        O  0.07108017  0.03570235  0.91296584    -0.93590
O150        O  0.16186975  0.39836565  0.00347372    -0.41390
O151        O  0.10929092  0.46434489  0.99071176    -0.78030
O152        O  0.14810637  0.44955882  0.05739690    -0.96710
O153        O  0.15492137  0.49946923  0.10022116    -0.90020
O154        O  0.10983460  0.01564679  0.02299457    -0.92860
C155        C  0.17407976  0.43975980  0.84216926     1.00890
C156        C  0.12669833  0.04096453  0.81521387     1.13820
C157        C  0.23321887  0.49552965  0.97745661     1.04600
O158        O  0.21484925  0.43389411  0.07478487    -0.95010
O159        O  0.17799299  0.44539010  0.15791834    -0.90760
O160        O  0.14839524  0.47341901  0.17278188    -0.83900
C161        C  0.15891953  0.45169812  0.18644350     1.11240
O162        O  0.17166588  0.07223362  0.99425938    -0.96990
Zr163      Zr  0.14772931  0.03725631  0.03600717     1.88940
O164        O  0.10402253  0.51039769  0.15661300    -0.73640
O165        O  0.21073680  0.49102359  0.14613685    -0.52900
O166        O  0.18028537  0.04765913  0.11102937    -0.97580
O167        O  0.12222028  0.07587758  0.00438348    -0.54800
O168        O  0.12259958  0.04616744  0.12213121    -0.74150
C169        C  0.10841260  0.03410281  0.15866682     0.98190
O170        O  0.09709799  0.43945657  0.13110703    -0.62970
O171        O  0.07756694  0.48329992  0.84623876    -0.57780
O172        O  0.07102722  0.48404281  0.08599661    -0.94460
O173        O  0.08494373  0.47554936  0.00164693    -0.92890
O174        O  0.11500975  0.42697389  0.87034461    -0.93240
O175        O  0.11539377  0.40256142  0.98501060    -0.92030
C176        C  0.06708835  0.48423927  0.02974609     1.17030
H177        H  0.13017578  0.47210939  0.84805229     0.32980
H178        H  0.14884719  0.43363038  0.08183391     0.43830
H179        H  0.09566788  0.02618135  0.03242502     0.37350
H180        H  0.19489740  0.02107730  0.00481315     0.33830
H181        H  0.16512133  0.38783841  0.97004582     0.25620
H182        H  0.22609737  0.47981236  0.15519730     0.31560
H183        H  0.17192345  0.06008240  0.13479580     0.37470
H184        H  0.11443051  0.40825932  0.87333922     0.31930
H185        H  0.08595650  0.48742047  0.80860051     0.30810
H186        H  0.07973846  0.05072779  0.92631548     0.32490
H187        H  0.12499385  0.08697787  0.03755582     0.31450
H188        H  0.10239937  0.40996013  0.00902209     0.35450
H189        H  0.08287326  0.43656115  0.10187077     0.28190
H190        H  0.21254247  0.00429712  0.81660693     0.32420
H191        H  0.17233033  0.08471873  0.02490380     0.35270
H192        H  0.08037083  0.46473697  0.85464716     0.27880
H193        H  0.10954981  0.42554365  0.12609534     0.40750
H194        H  0.21849077  0.43111878  0.03290719     0.30810
H195        H  0.17886327  0.40311992  0.01859984     0.38420
H196        H  0.10446619  0.07093287  0.00679388     0.30270
H197        H  0.21693517  0.50683640  0.12648555     0.30340
H198        H  0.20086727  0.03169562  0.82178845     0.30600
Zr199      Zr  0.43811929  0.04884250  0.86188335     2.17510
O200        O  0.45738965  0.08292463  0.80248754    -0.51750
O201        O  0.44459678  0.01214862  0.80347492    -0.74960
O202        O  0.48182735  0.04270347  0.83934814    -0.81740
O203        O  0.38549059  0.09386277  0.84469427    -0.83490
O204        O  0.97023793  0.02978301  0.92500930    -0.79110
O205        O  0.40884217  0.07137980  0.78699724    -0.90750
O206        O  0.43826467  0.47760943  0.86669167    -0.76710
O207        O  0.44606739  0.01114056  0.93062709    -0.86200
O208        O  0.39856676  0.02871991  0.86686170    -0.85890
O209        O  0.45484086  0.06130105  0.96132695    -0.72650
O210        O  0.41193648  0.07762194  0.91020208    -0.84780
Zr211      Zr  0.39610338  0.03023300  0.07998877     2.26420
Zr212      Zr  0.46118477  0.02267584  0.02744461     2.06270
Zr213      Zr  0.37246452  0.05823548  0.91397840     2.10050
Zr214      Zr  0.40716339  0.49123579  0.93368017     1.78760
O215        O  0.33750359  0.08936547  0.89069992    -0.93590
O216        O  0.42430703  0.44957941  0.97451974    -0.41390
O217        O  0.38083149  0.02027383  0.97994857    -0.78030
O218        O  0.42232422  0.00090162  0.03254254    -0.96710
O219        O  0.43467706  0.05137021  0.07338736    -0.90020
O220        O  0.38688399  0.06806625  0.01313195    -0.92860
C221        C  0.44742191  0.98825748  0.81984164     1.00890
C222        C  0.39874634  0.09248363  0.79865964     1.13820
C223        C  0.98828944  0.03379667  0.89190508     1.04600
O224        O  0.49693706  0.49247988  0.03862216    -0.95010
O225        O  0.46098413  0.99239116  0.11341489    -0.90760
O226        O  0.42260872  0.99760281  0.15135829    -0.83900
C227        C  0.44522523  0.98666368  0.15275152     1.11240
O228        O  0.45379693  0.12147942  0.96903022    -0.96990
Zr229      Zr  0.42612547  0.08876023  0.00638537     1.88940
O230        O  0.39944825  0.06722883  0.14358946    -0.73640
O231        O  0.48781428  0.04773264  0.09071225    -0.52900
O232        O  0.45599187  0.10023066  0.08638702    -0.97580
O233        O  0.40221380  0.12696768  0.96374146    -0.54800
O234        O  0.39971009  0.10219567  0.07989784    -0.74150
C235        C  0.39979861  0.09168650  0.13268466     0.98190
O236        O  0.37113240  0.51803705  0.16455328    -0.62970
O237        O  0.34677552  0.03691213  0.84061933    -0.57780
O238        O  0.35179600  0.02128464  0.05148430    -0.94460
O239        O  0.33906443  0.05329955  0.98252341    -0.92890
O240        O  0.37840211  0.47987015  0.85163292    -0.93240
O241        O  0.37526909  0.46261692  0.96861868    -0.92030
C242        C  0.33458546  0.03317633  0.01522758     1.17030
H243        H  0.39203859  0.02519707  0.82720815     0.32980
H244        H  0.42359826  0.48416773  0.05309976     0.43830
H245        H  0.37328791  0.07811836  0.02719320     0.37350
H246        H  0.47018742  0.07059957  0.95838308     0.33830
H247        H  0.42199765  0.43858919  0.94098465     0.25620
H248        H  0.50072039  0.03547092  0.11120179     0.31560
H249        H  0.47289445  0.09874546  0.07039208     0.37470
H250        H  0.38783475  0.46647954  0.83284448     0.31930
H251        H  0.32943248  0.03791399  0.85444405     0.30810
H252        H  0.33355773  0.08945335  0.84680085     0.32490
H253        H  0.38426833  0.12239707  0.96396579     0.31450
H254        H  0.37233569  0.46732933  0.00961706     0.35450
H255        H  0.37244146  0.49926485  0.16889089     0.28190
H256        H  0.46386398  0.07590445  0.76647653     0.32420
H257        H  0.45064027  0.13611299  0.99280943     0.35270
H258        H  0.34607192  0.04846931  0.80337424     0.27880
H259        H  0.38105525  0.52319355  0.20028103     0.40750
H260        H  0.49353452  0.48117539  0.00613397     0.30810
H261        H  0.44281095  0.45157088  0.97940047     0.38420
H262        H  0.40555907  0.12871619  0.92066325     0.30270
H263        H  0.49702988  0.05934982  0.06405611     0.30340
H264        H  0.47232827  0.08829331  0.82651237     0.30600
C265        C  0.25989816  0.50377234  0.98069701    -0.00580
C266        C  0.27749863  0.49065524  0.02329369    -0.12450
C267        C  0.30154310  0.99984753  0.03668328     0.01660
C268        C  0.30877893  0.02280990  0.00680006    -0.00660
C269        C  0.29138094  0.03549746  0.96303789    -0.12390
C270        C  0.26735475  0.02637043  0.94987442     0.01540
H271        H  0.27223977  0.47326886  0.04761719     0.14520
H272        H  0.29639524  0.05296148  0.93869818     0.14520
C273        C  0.25061403  0.04166182  0.90677020     0.36180
C274        C  0.31796815  0.48523073  0.08181776     0.36080
N275        N  0.23773937  0.05452419  0.87221305    -0.44170
N276        N  0.33089900  0.47330616  0.11811591    -0.44160
C277        C  0.04680974  0.49865215  0.99487916    -0.00580
C278        C  0.03994716  0.49020649  0.93831598    -0.12450
C279        C  0.02484528  0.00558123  0.89630627     0.01660
C280        C  0.01375692  0.02770182  0.91403794    -0.00660
C281        C  0.02157907  0.03712238  0.96819901    -0.12390
C282        C  0.03844429  0.02290726  0.00885974     0.01540
H283        H  0.04730569  0.47209877  0.92618296     0.14520
H284        H  0.01382162  0.05523706  0.97882534     0.14520
C285        C  0.04663004  0.03386769  0.06319088     0.36180
C286        C  0.02210396  0.99969103  0.83440661     0.36080
N287        N  0.05245318  0.04358039  0.10608714    -0.44170
N288        N  0.02068646  0.49613179  0.78395560    -0.44160
C289        C  0.11401602  0.40013479  0.29095421    -0.00580
C290        C  0.13806478  0.39164700  0.27567899    -0.12450
C291        C  0.15333041  0.40766933  0.24128643     0.01660
C292        C  0.14542958  0.43334888  0.22610243    -0.00660
C293        C  0.12169622  0.44168820  0.24365897    -0.12390
C294        C  0.10544341  0.42509135  0.27145604     0.01540
H295        H  0.14507751  0.37262112  0.29155015     0.14520
H296        H  0.11481432  0.46114403  0.23233587     0.14520
C297        C  0.08036601  0.43476959  0.28153415     0.36180
C298        C  0.17696303  0.39736059  0.22338282     0.36080
N299        N  0.06020908  0.44263945  0.28837167    -0.44170
N300        N  0.19582508  0.38898090  0.20872195    -0.44160
C301        C  0.13871530  0.39000965  0.72158143    -0.00580
C302        C  0.15092687  0.41126444  0.69689882    -0.12450
C303        C  0.16440573  0.42721268  0.73411348     0.01660
C304        C  0.16713234  0.42105632  0.79699024    -0.00660
C305        C  0.15887940  0.39714372  0.81910144    -0.12390
C306        C  0.14401714  0.38225757  0.78270667     0.01540
H307        H  0.14749093  0.41707187  0.64932803     0.14520
H308        H  0.16150319  0.39118472  0.86654585     0.14520
C309        C  0.13243713  0.36032340  0.81010800     0.36180
C310        C  0.17396687  0.45028804  0.70697098     0.36080
N311        N  0.12303035  0.34278784  0.83191176    -0.44170
N312        N  0.18164278  0.46877226  0.68505366    -0.44160
C313        C  0.45485430  0.46576498  0.20028449    -0.00580
C314        C  0.44994914  0.46702558  0.26084951    -0.12450
C315        C  0.46374823  0.45133873  0.30699540     0.01660
C316        C  0.48347827  0.43403020  0.29377691    -0.00660
C317        C  0.48652659  0.43091727  0.23306125    -0.12390
C318        C  0.47235936  0.44616928  0.18684560     0.01540
H319        H  0.43629740  0.48121008  0.27261886     0.14520
H320        H  0.00108998  0.41761495  0.22149578     0.14520
C321        C  0.47658455  0.44135611  0.12560208     0.36180
C322        C  0.45739762  0.45365858  0.36812604     0.36080
N323        N  0.48003405  0.43718010  0.07675459    -0.44170
N324        N  0.45191233  0.45545137  0.41686969    -0.44160
C325        C  0.49515381  0.44243613  0.71787027    -0.00580
C326        C  0.47456049  0.45728874  0.68893832    -0.12450
C327        C  0.45890456  0.47234699  0.72118139     0.01660
C328        C  0.46290237  0.47195867  0.78404172    -0.00660
C329        C  0.48244590  0.45595389  0.81359483    -0.12390
C330        C  0.99895019  0.44181923  0.78103710     0.01540
H331        H  0.47094855  0.45754391  0.64058730     0.14520
H332        H  0.48558585  0.45542408  0.86211135     0.14520
C333        C  0.01953637  0.42687814  0.81345551     0.36180
C334        C  0.43812308  0.48726796  0.68949210     0.36080
N335        N  0.03613449  0.41500027  0.83937374    -0.44170
N336        N  0.42122771  0.99926291  0.66521449    -0.44160
C337        C  0.09515899  0.04838964  0.20467348    -0.00580
C338        C  0.07512243  0.03692787  0.23387663    -0.12450
C339        C  0.06032271  0.04993216  0.27252770     0.01660
C340        C  0.06569352  0.07506079  0.28523241    -0.00660
C341        C  0.08638927  0.08619204  0.25845583    -0.12390
C342        C  0.10081459  0.07341108  0.21837779     0.01540
H343        H  0.07031053  0.01777635  0.22509610     0.14520
H344        H  0.09115238  0.10525406  0.26817995     0.14520
C345        C  0.12147197  0.08658687  0.19292689     0.36180
C346        C  0.04000234  0.03656555  0.29915760     0.36080
N347        N  0.13798797  0.09735246  0.17281085    -0.44170
N348        N  0.02372461  0.02558634  0.31976915    -0.44160
C349        C  0.11811137  0.06086081  0.76599923    -0.00580
C350        C  0.11210718  0.08582489  0.78049991    -0.12450
C351        C  0.09308766  0.10154034  0.74628741     0.01660
C352        C  0.07891508  0.09202338  0.69787351    -0.00660
C353        C  0.08606727  0.06768565  0.68214466    -0.12390
C354        C  0.10555158  0.05259500  0.71407800     0.01540
H355        H  0.12068539  0.09226417  0.82159696     0.14520
H356        H  0.07528991  0.05949690  0.64671723     0.14520
C357        C  0.11012622  0.02715850  0.69700566     0.36180
C358        C  0.08674200  0.12618356  0.76541860     0.36080
N359        N  0.11372539  0.50677824  0.68345067    -0.44170
N360        N  0.08163205  0.14597806  0.78071524    -0.44160
C361        C  0.42846778  0.13408412  0.27385947    -0.00580
C362        C  0.42549778  0.14585824  0.21589933    -0.12450
C363        C  0.41242513  0.13408557  0.17020106     0.01660
C364        C  0.40367503  0.10896910  0.18187223    -0.00660
C365        C  0.40319728  0.09931094  0.24190482    -0.12390
C366        C  0.41466750  0.11221573  0.28804251     0.01540
H367        H  0.43528423  0.16313650  0.20513482     0.14520
H368        H  0.39524134  0.08103118  0.25261376     0.14520
C369        C  0.41328334  0.10172645  0.34926291     0.36180
C370        C  0.41033904  0.14786566  0.11151203     0.36080
N371        N  0.41166610  0.09304617  0.39797899    -0.44170
N372        N  0.40876252  0.15940369  0.06509753    -0.44160
C373        C  0.40744142  0.11563839  0.76531639    -0.00580
C374        C  0.42747832  0.12867053  0.79186489    -0.12450
C375        C  0.44421585  0.14243575  0.75623184     0.01660
C376        C  0.44021588  0.14437265  0.69297616    -0.00660
C377        C  0.41762766  0.13479029  0.66808594    -0.12390
C378        C  0.40190219  0.11990476  0.70310390     0.01540
H379        H  0.43203393  0.12549174  0.83988380     0.14520
H380        H  0.41346646  0.13649725  0.62002913     0.14520
C381        C  0.38146330  0.10728585  0.67358182     0.36180
C382        C  0.46581799  0.15329451  0.78545813     0.36080
N383        N  0.36513828  0.09704977  0.65008207    -0.44170
N384        N  0.48308372  0.16207713  0.80904347    -0.44160
C385        C  0.03986045  0.28712992  0.48788187    -0.00580
C386        C  0.01480931  0.28368157  0.46635847    -0.12450
C387        C  0.00384096  0.25998698  0.47479700     0.01660
C388        C  0.01799939  0.23914566  0.50555345    -0.00660
C389        C  0.04304138  0.24261310  0.52662042    -0.12390
C390        C  0.05408759  0.26608327  0.51761668     0.01540
H391        H  0.00346146  0.29973301  0.44468751     0.14520
H392        H  0.05445784  0.22660671  0.54834607     0.14520
C393        C  0.08040490  0.26764685  0.53771247     0.36180
C394        C  0.47778294  0.25784028  0.45333706     0.36080
N395        N  0.10151718  0.26863584  0.55378965    -0.44170
N396        N  0.45687570  0.25618189  0.43622182    -0.44160
C397        C  0.03971007  0.49305294  0.57116647    -0.00580
C398        C  0.01404001  0.49509652  0.58099874    -0.12450
C399        C  0.99785321  0.01066846  0.54187973     0.01660
C400        C  0.00771754  0.02433614  0.49296695    -0.00660
C401        C  0.03335627  0.02196314  0.48250155    -0.12390
C402        C  0.04960959  0.00672369  0.52241967     0.01540
H403        H  0.00650377  0.48339110  0.61699385     0.14520
H404        H  0.04093569  0.03309843  0.44548747     0.14520
C405        C  0.07640441  0.00579918  0.51377635     0.36180
C406        C  0.47115879  0.01195428  0.55107636     0.36080
N407        N  0.09787157  0.00536054  0.50704445    -0.44170
N408        N  0.44965652  0.01317360  0.55698239    -0.44160
Zr409      Zr  0.01614880  0.65202992  0.58774303     2.17510
O410        O  0.03599393  0.67579489  0.66577636    -0.51750
O411        O  0.48365603  0.65132469  0.66430900    -0.74960
O412        O  0.01702218  0.69755545  0.55461532    -0.81740
O413        O  0.03682117  0.58994433  0.65664510    -0.83490
O414        O  0.49626974  0.70629148  0.46207205    -0.79110
O415        O  0.05337557  0.62806948  0.64455778    -0.90750
O416        O  0.45236292  0.65631985  0.59521443    -0.76710
O417        O  0.47657435  0.65870894  0.52785812    -0.86200
O418        O  0.49417890  0.61344145  0.59985063    -0.85810
O419        O  0.02495721  0.66111576  0.48227640    -0.72650
O420        O  0.04234302  0.62076121  0.54574204    -0.84780
Zr421      Zr  0.49298207  0.59766130  0.39348415     2.26420
Zr422      Zr  0.48485956  0.66641889  0.42346563     2.06270
Zr423      Zr  0.01972421  0.58267955  0.55702343     2.10050
Zr424      Zr  0.45531243  0.62006368  0.53882318     1.78760
O425        O  0.05876739  0.55897976  0.54435374    -0.93590
O426        O  0.41546166  0.63908328  0.49113660    -0.41390
O427        O  0.48084603  0.58955353  0.49623435    -0.78030
O428        O  0.46480417  0.62644922  0.43694548    -0.96710
O429        O  0.01307534  0.63700766  0.38133822    -0.90020
O430        O  0.03161830  0.59124842  0.45593848    -0.92860
C431        C  0.45969809  0.65265768  0.65016339     1.00890
C432        C  0.05501998  0.60453827  0.66610940     1.13820
C433        C  0.50904112  0.71285807  0.50870519     1.04600
O434        O  0.44833673  0.69591413  0.41854462    -0.95010
O435        O  0.45256883  0.65710993  0.34464375    -0.90760
O436        O  0.46929434  0.62149445  0.31054287    -0.83900
C437        C  0.45160106  0.63851469  0.31092831     1.11240
O438        O  0.08418094  0.65764833  0.48059932    -0.96990
Zr439      Zr  0.05183652  0.63028206  0.44237488     1.88940
O440        O  0.02712674  0.58578448  0.33043745    -0.73640
O441        O  0.00143182  0.68944151  0.33688281    -0.52900
O442        O  0.05880411  0.66216890  0.36092563    -0.97580
O443        O  0.09305555  0.60895795  0.46956258    -0.54800
O444        O  0.06299355  0.60431467  0.36130097    -0.74150
C445        C  0.05093926  0.58943688  0.32795084     0.98190
O446        O  0.46310065  0.57654957  0.32830455    -0.62970
O447        O  0.51461977  0.54564462  0.62647272    -0.57780
O448        O  0.49443475  0.55233911  0.40934700    -0.94460
O449        O  0.98714788  0.56305521  0.49813119    -0.92890
O450        O  0.44876055  0.58778707  0.62037639    -0.93240
O451        O  0.41603346  0.59765946  0.54349073    -0.92030
C452        C  0.99377810  0.54610939  0.46467916     1.17030
H453        H  0.49190477  0.60804016  0.64135063     0.32980
H454        H  0.44821775  0.62538483  0.41771637     0.43830
H455        H  0.04184711  0.57735229  0.44404747     0.37350
H456        H  0.03463750  0.67608208  0.47658213     0.33830
H457        H  0.40833358  0.64960291  0.52099205     0.25620
H458        H  0.48881151  0.70352945  0.32536338     0.31560
H459        H  0.07302284  0.65501081  0.34022904     0.37470
H460        H  0.45182193  0.59572405  0.65852914     0.31930
H461        H  0.03157794  0.54135787  0.64673215     0.30810
H462        H  0.07185344  0.57183151  0.54428076     0.32490
H463        H  0.10407067  0.61537167  0.43809323     0.31450
H464        H  0.41894437  0.58232101  0.52191987     0.35450
H465        H  0.47345552  0.56559318  0.30473967     0.28190
H466        H  0.02336338  0.68930812  0.67260605     0.32420
H467        H  0.09493491  0.66171155  0.44684428     0.35270
H468        H  0.50438700  0.55185903  0.65814749     0.27880
H469        H  0.45376725  0.56474503  0.35456940     0.40750
H470        H  0.44315954  0.69544844  0.46034742     0.30810
H471        H  0.42031307  0.65173254  0.45932375     0.38420
H472        H  0.09080949  0.59102638  0.46164996     0.30270
H473        H  0.01644538  0.69777731  0.35356116     0.30340
H474        H  0.04982323  0.68479066  0.64661607     0.30600
Zr475      Zr  0.07072463  0.92053374  0.62484182     2.17510
O476        O  0.10611033  0.94305066  0.66749304    -0.51750
O477        O  0.03585582  0.92717573  0.69043747    -0.74960
O478        O  0.06169916  0.96424517  0.64541794    -0.81740
O479        O  0.11609975  0.86805112  0.64484241    -0.83490
O480        O  0.05130390  0.95132804  0.56065121    -0.79110
O481        O  0.09467423  0.89322597  0.70120090    -0.90750
O482        O  0.00022342  0.91699884  0.63749874    -0.76710
O483        O  0.03158338  0.92681753  0.56177348    -0.86200
O484        O  0.05173960  0.88025638  0.62702649    -0.85890
O485        O  0.08091662  0.93571057  0.52120455    -0.72650
O486        O  0.09906761  0.89433189  0.57454194    -0.84780
Zr487      Zr  0.04703094  0.87545647  0.41554100     2.26420
Zr488      Zr  0.04100326  0.94111422  0.46168362     2.06270
Zr489      Zr  0.08068353  0.85432374  0.57768320     2.10050
Zr490      Zr  0.01256409  0.88735251  0.56690675     1.78760
O491        O  0.11578437  0.82435912  0.56814585    -0.93590
O492        O  0.47038404  0.90469068  0.53260686    -0.41390
O493        O  0.04102429  0.86134008  0.51905893    -0.78030
O494        O  0.01895880  0.90216100  0.46469561    -0.96710
O495        O  0.06844337  0.91417329  0.41390327    -0.90020
O496        O  0.08707263  0.86721506  0.47425333    -0.92860
C497        C  0.01158529  0.92771068  0.68032444     1.00890
C498        C  0.11527852  0.88222421  0.68904202     1.13820
C499        C  0.05184245  0.96951732  0.59322267     1.04600
O500        O  0.00876203  0.97488690  0.44994845    -0.95010
O501        O  0.01068095  0.94048399  0.37745575    -0.90760
O502        O  0.01341817  0.90086500  0.34585411    -0.83900
C503        C  0.00376017  0.92407470  0.34161814     1.11240
O504        O  0.14264595  0.93206158  0.50682750    -0.96990
Zr505      Zr  0.10756222  0.90673540  0.47378892     1.88940
O506        O  0.07765560  0.88485159  0.33877514    -0.73640
O507        O  0.06284056  0.97246549  0.40044010    -0.52900
O508        O  0.11810649  0.94088650  0.40108802    -0.97580
O509        O  0.14587072  0.88116292  0.50694539    -0.54800
O510        O  0.11543814  0.88270986  0.39009367    -0.74150
C511        C  0.10182897  0.88681508  0.34129486     0.98190
O512        O  0.03237585  0.84812217  0.33900722    -0.62970
O513        O  0.07204405  0.82675891  0.66603393    -0.57780
O514        O  0.04213960  0.82973385  0.44287024    -0.94460
O515        O  0.06303406  0.81805220  0.53406157    -0.92890
O516        O  0.00358936  0.85799892  0.65173182    -0.93240
O517        O  0.48408366  0.85483081  0.53718211    -0.92030
C518        C  0.04937827  0.81321751  0.48714362     1.17030
H519        H  0.04932257  0.87376552  0.66777390     0.32980
H520        H  0.00200215  0.90369735  0.44612849     0.43830
H521        H  0.09683654  0.85378962  0.45864446     0.37350
H522        H  0.09017818  0.95118726  0.52086376     0.33830
H523        H  0.46020000  0.90207461  0.56798774     0.25620
H524        H  0.05372469  0.98887436  0.40344527     0.31560
H525        H  0.13335663  0.93443574  0.38296662     0.37470
H526        H  0.48861531  0.86580364  0.66839049     0.31930
H527        H  0.07721378  0.83628252  0.70080909     0.30810
H528        H  0.11962256  0.81619288  0.60932298     0.32490
H529        H  0.15553812  0.88049471  0.47066351     0.31450
H530        H  0.48802333  0.85208318  0.49547274     0.35450
H531        H  0.01369718  0.84890720  0.33952846     0.28190
H532        H  0.10088615  0.94959497  0.70523235     0.32420
H533        H  0.15680382  0.92812695  0.48188670     0.35270
H534        H  0.05336023  0.82660697  0.66553884     0.27880
H535        H  0.53580906  0.85737884  0.30029789     0.40750
H536        H  0.49529746  0.96820009  0.47470197     0.30810
H537        H  0.47227087  0.92327146  0.52733755     0.38420
H538        H  0.14006433  0.86371937  0.51474933     0.30270
H539        H  0.07958729  0.97392292  0.42174281     0.30340
H540        H  0.10834737  0.95814087  0.63942415     0.30600
Zr541      Zr  0.17292649  0.99866579  0.89818469     2.17510
O542        O  0.19631761  0.51432939  0.81338920    -0.51750
O543        O  0.17311620  0.96393374  0.82844027    -0.74960
O544        O  0.21824997  0.00222554  0.93032039    -0.81740
O545        O  0.10821066  0.53091862  0.84019397    -0.83490
O546        O  0.22629505  0.98349920  0.02541489    -0.79110
O547        O  0.15031645  0.53411716  0.82959225    -0.90750
O548        O  0.17664804  0.93132400  0.89698073    -0.76710
O549        O  0.17968764  0.96042442  0.96474704    -0.86200
O550        O  0.13517939  0.97546016  0.88885647    -0.85890
O551        O  0.18041408  0.51067189  0.00111815    -0.72650
O552        O  0.14067345  0.52523266  0.93448518    -0.84780
Zr553      Zr  0.11633465  0.97802230  0.09140768     2.26420
Zr554      Zr  0.18691314  0.97173303  0.06623054     2.06270
Zr555      Zr  0.10340229  0.50166745  0.92444617     2.10050
Zr556      Zr  0.14165948  0.93790849  0.95701235     1.78760
O557        O  0.07108017  0.53570235  0.91296582    -0.93590
O558        O  0.16186974  0.89836565  0.00347375    -0.41390
O559        O  0.10929092  0.96434489  0.99071177    -0.78030
O560        O  0.14810637  0.94955883  0.05739691    -0.96710
O561        O  0.15492137  0.99946923  0.10022117    -0.90020
O562        O  0.10983461  0.51564680  0.02299456    -0.92860
C563        C  0.17407976  0.93975980  0.84216927     1.00890
C564        C  0.12669833  0.54096453  0.81521386     1.13820
C565        C  0.23321887  0.99552965  0.97745662     1.04600
O566        O  0.21484926  0.93389412  0.07478490    -0.95010
O567        O  0.17799299  0.94539011  0.15791835    -0.90760
O568        O  0.14839524  0.97341901  0.17278188    -0.83900
C569        C  0.15891952  0.95169812  0.18644352     1.11240
O570        O  0.17166589  0.57223362  0.99425937    -0.96990
Zr571      Zr  0.14772932  0.53725631  0.03600716     1.88940
O572        O  0.10402253  0.01039769  0.15661300    -0.73640
O573        O  0.21073679  0.99102361  0.14613686    -0.52900
O574        O  0.18028538  0.54765913  0.11102936    -0.97580
O575        O  0.12222029  0.57587758  0.00438347    -0.54800
O576        O  0.12259959  0.54616744  0.12213121    -0.74150
C577        C  0.10841261  0.53410281  0.15866681     0.98190
O578        O  0.09709799  0.93945657  0.13110704    -0.62970
O579        O  0.07756693  0.98329992  0.84623877    -0.57780
O580        O  0.07102721  0.98404280  0.08599661    -0.94460
O581        O  0.08494373  0.97554935  0.00164693    -0.92890
O582        O  0.11500974  0.92697390  0.87034464    -0.93240
O583        O  0.11539380  0.90256139  0.98501061    -0.92030
C584        C  0.06708834  0.98423927  0.02974609     1.17030
H585        H  0.13017578  0.97210938  0.84805230     0.32980
H586        H  0.14884719  0.93363038  0.08183393     0.43830
H587        H  0.09566788  0.52618136  0.03242501     0.37350
H588        H  0.19489740  0.52107730  0.00481314     0.33830
H589        H  0.16512153  0.88783850  0.97004582     0.25620
H590        H  0.22609736  0.97981237  0.15519733     0.31560
H591        H  0.17192346  0.56008240  0.13479579     0.37470
H592        H  0.11443049  0.90825933  0.87333924     0.31930
H593        H  0.08595650  0.98742046  0.80860052     0.30810
H594        H  0.07973846  0.55072779  0.92631549     0.32490
H595        H  0.12499386  0.58697787  0.03755582     0.31450
H596        H  0.10239939  0.90996009  0.00902208     0.35450
H597        H  0.08287326  0.93656115  0.10187079     0.28190
H598        H  0.21254248  0.50429712  0.81660693     0.32420
H599        H  0.17233034  0.58471873  0.02490380     0.35270
H600        H  0.08037081  0.96473696  0.85464718     0.27880
H601        H  0.10954981  0.92554365  0.12609535     0.40750
H602        H  0.21849076  0.93111877  0.03290721     0.30810
H603        H  0.17886318  0.90311996  0.01860037     0.38420
H604        H  0.10446620  0.57093287  0.00679386     0.30270
H605        H  0.21693517  0.00683641  0.12648555     0.30340
H606        H  0.20086726  0.53169562  0.82178842     0.30600
Zr607      Zr  0.43811928  0.54884250  0.86188336     2.17510
O608        O  0.45738965  0.58292463  0.80248756    -0.51750
O609        O  0.44459678  0.51214863  0.80347493    -0.74960
O610        O  0.48182735  0.54270347  0.83934815    -0.81740
O611        O  0.38549059  0.59386278  0.84469429    -0.83490
O612        O  0.97023793  0.52978300  0.92500928    -0.79110
O613        O  0.40884216  0.57137980  0.78699726    -0.90750
O614        O  0.43826467  0.97760943  0.86669166    -0.76710
O615        O  0.44606739  0.51114056  0.93062710    -0.86200
O616        O  0.39856675  0.52871992  0.86686171    -0.85890
O617        O  0.45484086  0.56130106  0.96132696    -0.72650
O618        O  0.41193648  0.57762194  0.91020209    -0.84780
Zr619      Zr  0.39610338  0.53023301  0.07998878     2.26420
Zr620      Zr  0.46118477  0.52267584  0.02744462     2.06270
Zr621      Zr  0.37246452  0.55823548  0.91397842     2.10050
Zr622      Zr  0.40716340  0.99123578  0.93368016     1.78760
O623        O  0.33750358  0.58936547  0.89069993    -0.93590
O624        O  0.42430704  0.94957941  0.97451973    -0.41390
O625        O  0.38083149  0.52027383  0.97994858    -0.78030
O626        O  0.42232422  0.50090163  0.03254255    -0.96710
O627        O  0.43467706  0.55137022  0.07338737    -0.90020
O628        O  0.38688398  0.56806625  0.01313196    -0.92860
C629        C  0.44742191  0.48825749  0.81984165     1.00890
C630        C  0.39874633  0.59248364  0.79865965     1.13820
C631        C  0.98828944  0.53379667  0.89190507     1.04600
O632        O  0.49693706  0.99247988  0.03862215    -0.95010
O633        O  0.46098412  0.49239116  0.11341490    -0.90760
O634        O  0.42260871  0.49760281  0.15135830    -0.83900
C635        C  0.44522523  0.48666368  0.15275153     1.11240
O636        O  0.45379693  0.62147942  0.96903023    -0.96990
Zr637      Zr  0.42612546  0.58876023  0.00638538     1.88940
O638        O  0.39944824  0.56722884  0.14358947    -0.73640
O639        O  0.48781428  0.54773264  0.09071227    -0.52900
O640        O  0.45599186  0.60023066  0.08638704    -0.97580
O641        O  0.40221380  0.62696768  0.96374148    -0.54800
O642        O  0.39971009  0.60219567  0.07989785    -0.74150
C643        C  0.39979860  0.59168650  0.13268467     0.98190
O644        O  0.37113240  0.01803705  0.16455326    -0.62970
O645        O  0.34677551  0.53691214  0.84061934    -0.57780
O646        O  0.35179600  0.52128464  0.05148431    -0.94460
O647        O  0.33906443  0.55329956  0.98252343    -0.92890
O648        O  0.37840211  0.97987015  0.85163291    -0.93240
O649        O  0.37526909  0.96261692  0.96861867    -0.92030
C650        C  0.33458546  0.53317633  0.01522760     1.17030
H651        H  0.39203859  0.52519707  0.82720817     0.32980
H652        H  0.42359827  0.98416772  0.05309975     0.43830
H653        H  0.37328790  0.57811837  0.02719321     0.37350
H654        H  0.47018741  0.57059957  0.95838309     0.33830
H655        H  0.42199765  0.93858919  0.94098464     0.25620
H656        H  0.50072038  0.53547093  0.11120181     0.31560
H657        H  0.47289445  0.59874546  0.07039210     0.37470
H658        H  0.38783475  0.96647953  0.83284448     0.31930
H659        H  0.32943247  0.53791399  0.85444406     0.30810
H660        H  0.33355773  0.58945335  0.84680086     0.32490
H661        H  0.38426833  0.62239708  0.96396580     0.31450
H662        H  0.37233570  0.96732933  0.00961705     0.35450
H663        H  0.37244146  0.99926485  0.16889087     0.28190
H664        H  0.46386398  0.57590445  0.76647655     0.32420
H665        H  0.45064027  0.63611299  0.99280945     0.35270
H666        H  0.34607191  0.54846931  0.80337426     0.27880
H667        H  0.38105525  0.02319354  0.20028102     0.40750
H668        H  0.49353453  0.98117539  0.00613396     0.30810
H669        H  0.44281095  0.95157088  0.97940046     0.38420
H670        H  0.40555906  0.62871620  0.92066326     0.30270
H671        H  0.49702988  0.55934982  0.06405612     0.30340
H672        H  0.47232827  0.58829332  0.82651239     0.30600
C673        C  0.25989816  0.00377235  0.98069701    -0.00580
C674        C  0.27749863  0.99065524  0.02329368    -0.12450
C675        C  0.30154310  0.49984753  0.03668330     0.01660
C676        C  0.30877893  0.52280990  0.00680007    -0.00660
C677        C  0.29138095  0.53549745  0.96303787    -0.12390
C678        C  0.26735475  0.52637042  0.94987439     0.01540
H679        H  0.27223977  0.97326885  0.04761716     0.14520
H680        H  0.29639525  0.55296147  0.93869815     0.14520
C681        C  0.25061405  0.54166181  0.90677015     0.36180
C682        C  0.31796816  0.98523071  0.08181771     0.36080
N683        N  0.23773939  0.55452417  0.87221297    -0.44170
N684        N  0.33089902  0.97330614  0.11811585    -0.44160
C685        C  0.04680974  0.99865215  0.99487916    -0.00580
C686        C  0.03994715  0.99020649  0.93831598    -0.12450
C687        C  0.02484528  0.50558123  0.89630627     0.01660
C688        C  0.01375692  0.52770182  0.91403793    -0.00660
C689        C  0.02157907  0.53712238  0.96819900    -0.12390
C690        C  0.03844429  0.52290727  0.00885974     0.01540
H691        H  0.04730568  0.97209877  0.92618296     0.14520
H692        H  0.01382163  0.55523707  0.97882533     0.14520
C693        C  0.04663005  0.53386770  0.06319087     0.36180
C694        C  0.02210396  0.49969102  0.83440661     0.36080
N695        N  0.05245319  0.54358040  0.10608713    -0.44170
N696        N  0.02068645  0.99613179  0.78395560    -0.44160
C697        C  0.11401602  0.90013479  0.29095422    -0.00580
C698        C  0.13806478  0.89164700  0.27567900    -0.12450
C699        C  0.15333041  0.90766933  0.24128644     0.01660
C700        C  0.14542958  0.93334888  0.22610244    -0.00660
C701        C  0.12169622  0.94168821  0.24365898    -0.12390
C702        C  0.10544341  0.92509135  0.27145605     0.01540
H703        H  0.14507751  0.87262112  0.29155016     0.14520
H704        H  0.11481431  0.96114403  0.23233588     0.14520
C705        C  0.08036601  0.93476959  0.28153416     0.36180
C706        C  0.17696303  0.89736060  0.22338283     0.36080
N707        N  0.06020907  0.94263945  0.28837168    -0.44170
N708        N  0.19582507  0.88898090  0.20872196    -0.44160
C709        C  0.13871529  0.89000965  0.72158145    -0.00580
C710        C  0.15092687  0.91126444  0.69689884    -0.12450
C711        C  0.16440573  0.92721268  0.73411350     0.01660
C712        C  0.16713233  0.92105632  0.79699026    -0.00660
C713        C  0.15887938  0.89714372  0.81910147    -0.12390
C714        C  0.14401712  0.88225757  0.78270669     0.01540
H715        H  0.14749093  0.91707187  0.64932805     0.14520
H716        H  0.16150317  0.89118473  0.86654587     0.14520
C717        C  0.13243711  0.86032341  0.81010803     0.36180
C718        C  0.17396688  0.95028803  0.70697099     0.36080
N719        N  0.12303033  0.84278785  0.83191179    -0.44170
N720        N  0.18164279  0.96877225  0.68505366    -0.44160
C721        C  0.45485430  0.96576498  0.20028448    -0.00580
C722        C  0.44994915  0.96702558  0.26084950    -0.12450
C723        C  0.46374823  0.95133872  0.30699539     0.01660
C724        C  0.48347828  0.93403019  0.29377690    -0.00660
C725        C  0.48652659  0.93091727  0.23306124    -0.12390
C726        C  0.47235937  0.94616928  0.18684559     0.01540
H727        H  0.43629741  0.98121007  0.27261885     0.14520
H728        H  0.00108998  0.91761495  0.22149579     0.14520
C729        C  0.47658455  0.94135611  0.12560207     0.36180
C730        C  0.45739763  0.95365858  0.36812603     0.36080
N731        N  0.48003406  0.93718009  0.07675458    -0.44170
N732        N  0.45191234  0.95545137  0.41686968    -0.44160
C733        C  0.49515381  0.94243612  0.71787026    -0.00580
C734        C  0.47456049  0.95728874  0.68893831    -0.12450
C735        C  0.45890456  0.97234698  0.72118138     0.01660
C736        C  0.46290237  0.97195867  0.78404171    -0.00660
C737        C  0.48244590  0.95595388  0.81359482    -0.12390
C738        C  0.99895019  0.94181923  0.78103711     0.01540
H739        H  0.47094856  0.95754392  0.64058729     0.14520
H740        H  0.48558585  0.95542408  0.86211134     0.14520
C741        C  0.01953636  0.92687815  0.81345552     0.36180
C742        C  0.43812308  0.98726797  0.68949209     0.36080
N743        N  0.03613449  0.91500027  0.83937375    -0.44170
N744        N  0.42122770  0.49926290  0.66521451    -0.44160
C745        C  0.09515900  0.54838964  0.20467347    -0.00580
C746        C  0.07512244  0.53692787  0.23387662    -0.12450
C747        C  0.06032271  0.54993216  0.27252768     0.01660
C748        C  0.06569353  0.57506079  0.28523241    -0.00660
C749        C  0.08638928  0.58619204  0.25845583    -0.12390
C750        C  0.10081460  0.57341108  0.21837779     0.01540
H751        H  0.07031053  0.51777636  0.22509608     0.14520
H752        H  0.09115239  0.60525406  0.26817995     0.14520
C753        C  0.12147199  0.58658687  0.19292689     0.36180
C754        C  0.04000235  0.53656555  0.29915759     0.36080
N755        N  0.13798799  0.59735246  0.17281086    -0.44170
N756        N  0.02372462  0.52558635  0.31976914    -0.44160
C757        C  0.11811138  0.56086081  0.76599922    -0.00580
C758        C  0.11210719  0.58582489  0.78049990    -0.12450
C759        C  0.09308767  0.60154034  0.74628740     0.01660
C760        C  0.07891509  0.59202338  0.69787350    -0.00660
C761        C  0.08606728  0.56768565  0.68214465    -0.12390
C762        C  0.10555159  0.55259500  0.71407799     0.01540
H763        H  0.12068540  0.59226417  0.82159695     0.14520
H764        H  0.07528992  0.55949690  0.64671722     0.14520
C765        C  0.11012623  0.52715850  0.69700565     0.36180
C766        C  0.08674201  0.62618356  0.76541859     0.36080
N767        N  0.11372538  0.00677823  0.68345068    -0.44170
N768        N  0.08163205  0.64597806  0.78071523    -0.44160
C769        C  0.42846777  0.63408412  0.27385949    -0.00580
C770        C  0.42549777  0.64585825  0.21589935    -0.12450
C771        C  0.41242512  0.63408557  0.17020108     0.01660
C772        C  0.40367502  0.60896911  0.18187224    -0.00660
C773        C  0.40319727  0.59931094  0.24190483    -0.12390
C774        C  0.41466749  0.61221573  0.28804252     0.01540
H775        H  0.43528422  0.66313650  0.20513484     0.14520
H776        H  0.39524133  0.58103118  0.25261377     0.14520
C777        C  0.41328333  0.60172645  0.34926292     0.36180
C778        C  0.41033903  0.64786566  0.11151205     0.36080
N779        N  0.41166609  0.59304617  0.39797900    -0.44170
N780        N  0.40876251  0.65940370  0.06509755    -0.44160
C781        C  0.40744142  0.61563840  0.76531640    -0.00580
C782        C  0.42747831  0.62867053  0.79186491    -0.12450
C783        C  0.44421585  0.64243576  0.75623185     0.01660
C784        C  0.44021587  0.64437266  0.69297617    -0.00660
C785        C  0.41762766  0.63479030  0.66808595    -0.12390
C786        C  0.40190219  0.61990476  0.70310391     0.01540
H787        H  0.43203392  0.62549174  0.83988381     0.14520
H788        H  0.41346646  0.63649726  0.62002914     0.14520
C789        C  0.38146329  0.60728585  0.67358183     0.36180
C790        C  0.46581798  0.65329451  0.78545814     0.36080
N791        N  0.36513827  0.59704977  0.65008209    -0.44170
N792        N  0.48308371  0.66207714  0.80904348    -0.44160
C793        C  0.03986045  0.78712992  0.48788187    -0.00580
C794        C  0.01480931  0.78368157  0.46635848    -0.12450
C795        C  0.00384096  0.75998698  0.47479701     0.01660
C796        C  0.01799939  0.73914566  0.50555345    -0.00660
C797        C  0.04304138  0.74261310  0.52662041    -0.12390
C798        C  0.05408760  0.76608327  0.51761667     0.01540
H799        H  0.00346146  0.79973301  0.44468753     0.14520
H800        H  0.05445785  0.72660671  0.54834605     0.14520
C801        C  0.08040490  0.76764685  0.53771244     0.36180
C802        C  0.47778294  0.75784028  0.45333704     0.36080
N803        N  0.10151719  0.76863584  0.55378962    -0.44170
N804        N  0.45687570  0.75618189  0.43622179    -0.44160
C805        C  0.03971007  0.99305295  0.57116648    -0.00580
C806        C  0.01404001  0.99509652  0.58099875    -0.12450
C807        C  0.99785321  0.51066846  0.54187972     0.01660
C808        C  0.00771755  0.52433614  0.49296693    -0.00660
C809        C  0.03335627  0.52196314  0.48250154    -0.12390
C810        C  0.04960959  0.50672368  0.52241966     0.01540
H811        H  0.00650378  0.98339110  0.61699386     0.14520
H812        H  0.04093569  0.53309843  0.44548746     0.14520
C813        C  0.07640441  0.50579917  0.51377634     0.36180
C814        C  0.47115878  0.51195428  0.55107638     0.36080
N815        N  0.09787157  0.50536054  0.50704444    -0.44170
N816        N  0.44965652  0.51317361  0.55698242    -0.44160
Zr817      Zr  0.51614881  0.15202990  0.58774300     2.17510
O818        O  0.53599396  0.17579488  0.66577631    -0.51750
O819        O  0.98365601  0.15132469  0.66430903    -0.74960
O820        O  0.51702220  0.19755543  0.55461528    -0.81740
O821        O  0.53682117  0.08994432  0.65664509    -0.83490
O822        O  0.99626973  0.20629149  0.46207209    -0.79110
O823        O  0.55337558  0.12806946  0.64455775    -0.90750
O824        O  0.95236290  0.15631985  0.59521445    -0.76710
O825        O  0.97657434  0.15870895  0.52785814    -0.86200
O826        O  0.99417889  0.11344146  0.59985064    -0.85810
O827        O  0.52495722  0.16111574  0.48227636    -0.72650
O828        O  0.54234303  0.12076120  0.54574201    -0.84780
Zr829      Zr  0.99298208  0.09766131  0.39348416     2.26420
Zr830      Zr  0.98485956  0.16641890  0.42346566     2.06270
Zr831      Zr  0.51972421  0.08267954  0.55702341     2.10050
Zr832      Zr  0.95531243  0.12006368  0.53882319     1.78760
O833        O  0.55876740  0.05897975  0.54435370    -0.93590
O834        O  0.91546166  0.13908327  0.49113661    -0.41390
O835        O  0.98084603  0.08955354  0.49623436    -0.78030
O836        O  0.96480417  0.12644923  0.43694549    -0.96710
O837        O  0.51307534  0.13700763  0.38133819    -0.90020
O838        O  0.53161829  0.09124840  0.45593845    -0.92860
C839        C  0.95969808  0.15265768  0.65016341     1.00890
C840        C  0.55501998  0.10453826  0.66610939     1.13820
C841        C  0.00904111  0.21285808  0.50870523     1.04600
O842        O  0.94833672  0.19591414  0.41854465    -0.95010
O843        O  0.95256883  0.15710994  0.34464377    -0.90760
O844        O  0.96929436  0.12149447  0.31054288    -0.83900
C845        C  0.95160107  0.13851470  0.31092833     1.11240
O846        O  0.58418095  0.15764831  0.48059926    -0.96990
Zr847      Zr  0.55183652  0.13028204  0.44237484     1.88940
O848        O  0.52712672  0.08578445  0.33043743    -0.73640
O849        O  0.50143182  0.18944149  0.33688278    -0.52900
O850        O  0.55880410  0.16216887  0.36092557    -0.97580
O851        O  0.59305555  0.10895793  0.46956251    -0.54800
O852        O  0.56299354  0.10431464  0.36130093    -0.74150
C853        C  0.55093925  0.08943684  0.32795081     0.98190
O854        O  0.96310067  0.07654959  0.32830454    -0.62970
O855        O  0.01461976  0.04564463  0.62647274    -0.57780
O856        O  0.99443477  0.05233913  0.40934699    -0.94460
O857        O  0.48714788  0.06305520  0.49813120    -0.92890
O858        O  0.94876055  0.08778707  0.62037639    -0.93240
O859        O  0.91603346  0.09765945  0.54349073    -0.92030
C860        C  0.49377809  0.04610937  0.46467917     1.17030
H861        H  0.99190477  0.10804016  0.64135065     0.32980
H862        H  0.94821775  0.12538484  0.41771638     0.43830
H863        H  0.54184710  0.07735227  0.44404744     0.37350
H864        H  0.53463750  0.17608206  0.47658208     0.33830
H865        H  0.90833357  0.14960291  0.52099206     0.25620
H866        H  0.98881151  0.20352947  0.32536342     0.31560
H867        H  0.57302283  0.15501078  0.34022898     0.37470
H868        H  0.95182193  0.09572405  0.65852914     0.31930
H869        H  0.53157796  0.04135786  0.64673213     0.30810
H870        H  0.57185344  0.07183150  0.54428072     0.32490
H871        H  0.60407066  0.11537165  0.43809316     0.31450
H872        H  0.91894438  0.08232101  0.52191988     0.35450
H873        H  0.97345555  0.06559320  0.30473965     0.28190
H874        H  0.52336340  0.18930811  0.67260600     0.32420
H875        H  0.59493491  0.16171153  0.44684420     0.35270
H876        H  0.00438699  0.05185904  0.65814750     0.27880
H877        H  0.95376727  0.06474504  0.35456937     0.40750
H878        H  0.94315953  0.19544845  0.46034744     0.30810
H879        H  0.92031306  0.15173254  0.45932376     0.38420
H880        H  0.59080949  0.09102636  0.46164990     0.30270
H881        H  0.51644539  0.19777729  0.35356112     0.30340
H882        H  0.54982326  0.18479065  0.64661602     0.30600
Zr883      Zr  0.57072463  0.42053373  0.62484182     2.17510
O884        O  0.60611032  0.44305065  0.66749305    -0.51750
O885        O  0.53585582  0.42717572  0.69043747    -0.74960
O886        O  0.56169915  0.46424516  0.64541795    -0.81740
O887        O  0.61609975  0.36805112  0.64484239    -0.83490
O888        O  0.55130389  0.45132803  0.56065122    -0.79110
O889        O  0.59467422  0.39322595  0.70120090    -0.90750
O890        O  0.50022341  0.41699883  0.63749874    -0.76710
O891        O  0.53158337  0.42681752  0.56177348    -0.86200
O892        O  0.55173960  0.38025637  0.62702648    -0.85890
O893        O  0.58091662  0.43571056  0.52120455    -0.72650
O894        O  0.59906760  0.39433189  0.57454193    -0.84780
Zr895      Zr  0.54703094  0.37545646  0.41554099     2.26420
Zr896      Zr  0.54100325  0.44111422  0.46168363     2.06270
Zr897      Zr  0.58068353  0.35432373  0.57768318     2.10050
Zr898      Zr  0.51256409  0.38735250  0.56690675     1.78760
O899        O  0.61578437  0.32435911  0.56814583    -0.93590
O900        O  0.97038405  0.40469069  0.53260686    -0.41390
O901        O  0.54102428  0.36134007  0.51905892    -0.78030
O902        O  0.51895880  0.40216099  0.46469561    -0.96710
O903        O  0.56844336  0.41417329  0.41390327    -0.90020
O904        O  0.58707263  0.36721506  0.47425331    -0.92860
C905        C  0.51158529  0.42771067  0.68032444     1.00890
C906        C  0.61527852  0.38222420  0.68904200     1.13820
C907        C  0.55184244  0.46951731  0.59322268     1.04600
O908        O  0.50876202  0.47488689  0.44994846    -0.95010
O909        O  0.51068095  0.44048399  0.37745576    -0.90760
O910        O  0.51341816  0.40086500  0.34585410    -0.83900
C911        C  0.50376017  0.42407470  0.34161813     1.11240
O912        O  0.64264594  0.43206158  0.50682750    -0.96990
Zr913      Zr  0.60756222  0.40673540  0.47378891     1.88940
O914        O  0.57765559  0.38485159  0.33877513    -0.73640
O915        O  0.56284055  0.47246549  0.40044011    -0.52900
O916        O  0.61810648  0.44088650  0.40108801    -0.97580
O917        O  0.64587072  0.38116292  0.50694538    -0.54800
O918        O  0.61543813  0.38270986  0.39009366    -0.74150
C919        C  0.60182896  0.38681508  0.34129485     0.98190
O920        O  0.53237584  0.34812217  0.33900720    -0.62970
O921        O  0.57204405  0.32675890  0.66603391    -0.57780
O922        O  0.54213960  0.32973384  0.44287021    -0.94460
O923        O  0.56303406  0.31805220  0.53406154    -0.92890
O924        O  0.50358936  0.35799891  0.65173181    -0.93240
O925        O  0.98408367  0.35483081  0.53718213    -0.92030
C926        C  0.54937827  0.31321751  0.48714359     1.17030
H927        H  0.54932256  0.37376551  0.66777389     0.32980
H928        H  0.50200215  0.40369734  0.44612848     0.43830
H929        H  0.59683653  0.35378962  0.45864444     0.37350
H930        H  0.59017817  0.45118725  0.52086377     0.33830
H931        H  0.96020001  0.40207462  0.56798775     0.25620
H932        H  0.55372469  0.48887436  0.40344529     0.31560
H933        H  0.63335662  0.43443575  0.38296661     0.37470
H934        H  0.98861532  0.36580365  0.66839051     0.31930
H935        H  0.57721378  0.33628251  0.70080907     0.30810
H936        H  0.61962256  0.31619288  0.60932296     0.32490
H937        H  0.65553812  0.38049471  0.47066351     0.31450
H938        H  0.98802334  0.35208318  0.49547276     0.35450
H939        H  0.51369718  0.34890720  0.33952845     0.28190
H940        H  0.60088615  0.44959496  0.70523236     0.32420
H941        H  0.65680381  0.42812695  0.48188669     0.35270
H942        H  0.55336023  0.32660696  0.66553882     0.27880
H943        H  0.03580907  0.35737884  0.30029790     0.40750
H944        H  0.99529746  0.46820010  0.47470197     0.30810
H945        H  0.97227088  0.42327147  0.52733755     0.38420
H946        H  0.64006433  0.36371937  0.51474932     0.30270
H947        H  0.57958729  0.47392292  0.42174282     0.30340
H948        H  0.60834736  0.45814086  0.63942415     0.30600
Zr949      Zr  0.67292650  0.49866578  0.89818468     2.17510
O950        O  0.69631762  0.01432938  0.81338921    -0.51750
O951        O  0.67311621  0.46393373  0.82844023    -0.74960
O952        O  0.71824997  0.50222554  0.93032039    -0.81740
O953        O  0.60821065  0.03091852  0.84019383    -0.83490
O954        O  0.72629504  0.48349921  0.02541490    -0.79110
O955        O  0.65031645  0.03411714  0.82959227    -0.90750
O956        O  0.67664807  0.43132400  0.89698069    -0.76710
O957        O  0.67968766  0.46042441  0.96474704    -0.86200
O958        O  0.63517941  0.47546012  0.88885644    -0.85890
O959        O  0.68041407  0.01067187  0.00111812    -0.72650
O960        O  0.64067343  0.02523262  0.93448512    -0.84780
Zr961      Zr  0.61633464  0.47802226  0.09140763     2.26420
Zr962      Zr  0.68691314  0.47173303  0.06623053     2.06270
Zr963      Zr  0.60340229  0.00166738  0.92444610     2.10050
Zr964      Zr  0.64165952  0.43790846  0.95701234     1.78760
O965        O  0.57108018  0.03570230  0.91296578    -0.93590
O966        O  0.66186976  0.39836562  0.00347377    -0.41390
O967        O  0.60929093  0.46434483  0.99071173    -0.78030
O968        O  0.64810638  0.44955881  0.05739689    -0.96710
O969        O  0.65492134  0.49946922  0.10022113    -0.90020
O970        O  0.60983459  0.01564675  0.02299449    -0.92860
C971        C  0.67407978  0.43975980  0.84216923     1.00890
C972        C  0.62669832  0.04096448  0.81521381     1.13820
C973        C  0.73321887  0.49552965  0.97745663     1.04600
O974        O  0.71484929  0.43389414  0.07478497    -0.95010
O975        O  0.67799299  0.44539011  0.15791835    -0.90760
O976        O  0.64839522  0.47341901  0.17278184    -0.83900
C977        C  0.65891952  0.45169812  0.18644349     1.11240
O978        O  0.67166582  0.07223361  0.99425926    -0.96990
Zr979      Zr  0.64772929  0.03725629  0.03600710     1.88940
O980        O  0.60402250  0.51039765  0.15661294    -0.73640
O981        O  0.71073675  0.49102364  0.14613685    -0.52900
O982        O  0.68028534  0.04765913  0.11102927    -0.97580
O983        O  0.62222022  0.07587754  0.00438341    -0.54800
O984        O  0.62259956  0.04616740  0.12213115    -0.74150
C985        C  0.60841258  0.03410277  0.15866676     0.98190
O986        O  0.59709799  0.43945653  0.13110702    -0.62970
O987        O  0.57756693  0.48329986  0.84623870    -0.57780
O988        O  0.57102720  0.48404274  0.08599650    -0.94460
O989        O  0.58494370  0.47554928  0.00164682    -0.92890
O990        O  0.61500974  0.42697389  0.87034465    -0.93240
O991        O  0.61539394  0.40256128  0.98501059    -0.92030
C992        C  0.56708832  0.48423920  0.02974598     1.17030
H993        H  0.63017580  0.47210934  0.84805227     0.32980
H994        H  0.64884720  0.43363036  0.08183392     0.43830
H995        H  0.59566785  0.02618130  0.03242493     0.37350
H996        H  0.69489738  0.02107729  0.00481312     0.33830
H997        H  0.66512209  0.38783869  0.97004576     0.25620
H998        H  0.72609733  0.47981241  0.15519737     0.31560
H999        H  0.67192342  0.06008240  0.13479571     0.37470
H1000       H  0.61443048  0.40825932  0.87333924     0.31930
H1001       H  0.58595651  0.48742039  0.80860046     0.30810
H1002       H  0.57973849  0.05072775  0.92631531     0.32490
H1003       H  0.62499380  0.08697784  0.03755574     0.31450
H1004       H  0.60239950  0.40995994  0.00902203     0.35450
H1005       H  0.58287327  0.43656110  0.10187076     0.28190
H1006       H  0.71254248  0.00429710  0.81660691     0.32420
H1007       H  0.67233028  0.08471872  0.02490368     0.35270
H1008       H  0.58037080  0.46473691  0.85464714     0.27880
H1009       H  0.60954983  0.42554362  0.12609534     0.40750
H1010       H  0.71849074  0.43111875  0.03290728     0.30810
H1011       H  0.67886298  0.40312004  0.01860163     0.38420
H1012       H  0.60446615  0.07093282  0.00679385     0.30270
H1013       H  0.71693514  0.50683644  0.12648552     0.30340
H1014       H  0.70086729  0.03169560  0.82178846     0.30600
Zr1015     Zr  0.93811928  0.04884250  0.86188338     2.17510
O1016       O  0.95738963  0.08292463  0.80248753    -0.51750
O1017       O  0.94459678  0.01214863  0.80347495    -0.74960
O1018       O  0.98182735  0.04270349  0.83934820    -0.81740
O1019       O  0.88549058  0.09386277  0.84469430    -0.83490
O1020       O  0.47023794  0.02978301  0.92500927    -0.79110
O1021       O  0.90884216  0.07137980  0.78699728    -0.90750
O1022       O  0.93826467  0.47760943  0.86669166    -0.76710
O1023       O  0.94606739  0.01114056  0.93062712    -0.86200
O1024       O  0.89856675  0.02871991  0.86686173    -0.85890
O1025       O  0.95484085  0.06130106  0.96132699    -0.72650
O1026       O  0.91193647  0.07762194  0.91020211    -0.84780
Zr1027     Zr  0.89610337  0.03023300  0.07998880     2.26420
Zr1028     Zr  0.96118476  0.02267584  0.02744464     2.06270
Zr1029     Zr  0.87246452  0.05823547  0.91397843     2.10050
Zr1030     Zr  0.90716340  0.49123578  0.93368017     1.78760
O1031       O  0.83750358  0.08936546  0.89069994    -0.93590
O1032       O  0.92430704  0.44957941  0.97451974    -0.41390
O1033       O  0.88083149  0.02027383  0.97994860    -0.78030
O1034       O  0.92232421  0.00090162  0.03254257    -0.96710
O1035       O  0.93467705  0.05137021  0.07338739    -0.90020
O1036       O  0.88688398  0.06806625  0.01313198    -0.92860
C1037       C  0.94742191  0.98825749  0.81984166     1.00890
C1038       C  0.89874632  0.09248363  0.79865967     1.13820
C1039       C  0.48828944  0.03379666  0.89190503     1.04600
O1040       O  0.99693707  0.49247990  0.03862217    -0.95010
O1041       O  0.96098412  0.99239116  0.11341491    -0.90760
O1042       O  0.92260871  0.99760280  0.15135832    -0.83900
C1043       C  0.94522523  0.98666368  0.15275154     1.11240
O1044       O  0.95379691  0.12147942  0.96903025    -0.96990
Zr1045     Zr  0.92612546  0.08876023  0.00638540     1.88940
O1046       O  0.89944825  0.06722883  0.14358950    -0.73640
O1047       O  0.98781427  0.04773264  0.09071229    -0.52900
O1048       O  0.95599186  0.10023066  0.08638705    -0.97580
O1049       O  0.90221378  0.12696768  0.96374150    -0.54800
O1050       O  0.89971008  0.10219566  0.07989787    -0.74150
C1051       C  0.89979860  0.09168649  0.13268470     0.98190
O1052       O  0.87113240  0.51803705  0.16455328    -0.62970
O1053       O  0.84677551  0.03691212  0.84061937    -0.57780
O1054       O  0.85179599  0.02128464  0.05148433    -0.94460
O1055       O  0.83906442  0.05329955  0.98252344    -0.92890
O1056       O  0.87840211  0.47987015  0.85163293    -0.93240
O1057       O  0.87526909  0.46261692  0.96861868    -0.92030
C1058       C  0.83458546  0.03317633  0.01522761     1.17030
H1059       H  0.89203859  0.02519707  0.82720818     0.32980
H1060       H  0.92359827  0.48416772  0.05309976     0.43830
H1061       H  0.87328790  0.07811836  0.02719323     0.37350
H1062       H  0.97018741  0.07059957  0.95838312     0.33830
H1063       H  0.92199766  0.43858919  0.94098465     0.25620
H1064       H  0.00072039  0.03547093  0.11120178     0.31560
H1065       H  0.97289444  0.09874547  0.07039211     0.37470
H1066       H  0.88783475  0.46647954  0.83284449     0.31930
H1067       H  0.82943247  0.03791398  0.85444409     0.30810
H1068       H  0.83355772  0.08945334  0.84680086     0.32490
H1069       H  0.88426832  0.12239707  0.96396582     0.31450
H1070       H  0.87233570  0.46732932  0.00961706     0.35450
H1071       H  0.87244146  0.49926485  0.16889089     0.28190
H1072       H  0.96386397  0.07590444  0.76647653     0.32420
H1073       H  0.95064025  0.13611300  0.99280946     0.35270
H1074       H  0.84607191  0.04846930  0.80337428     0.27880
H1075       H  0.88105525  0.52319354  0.20028103     0.40750
H1076       H  0.99353454  0.48117540  0.00613399     0.30810
H1077       H  0.94281096  0.45157088  0.97940046     0.38420
H1078       H  0.90555905  0.12871619  0.92066328     0.30270
H1079       H  0.99702986  0.05934984  0.06405615     0.30340
H1080       H  0.97232824  0.08829333  0.82651235     0.30600
C1081       C  0.75989816  0.50377235  0.98069703    -0.00580
C1082       C  0.77749863  0.49065525  0.02329370    -0.12450
C1083       C  0.80154310  0.99984752  0.03668326     0.01660
C1084       C  0.80877892  0.02280990  0.00680009    -0.00660
C1085       C  0.79138093  0.03549747  0.96303794    -0.12390
C1086       C  0.76735473  0.02637044  0.94987446     0.01540
H1087       H  0.77223977  0.47326886  0.04761718     0.14520
H1088       H  0.79639523  0.05296151  0.93869827     0.14520
C1089       C  0.75061401  0.04166185  0.90677029     0.36180
C1090       C  0.81796815  0.48523072  0.08181774     0.36080
N1091       N  0.73773934  0.05452422  0.87221318    -0.44170
N1092       N  0.83089901  0.47330615  0.11811588    -0.44160
C1093       C  0.54680973  0.49865209  0.99487906    -0.00580
C1094       C  0.53994714  0.49020645  0.93831586    -0.12450
C1095       C  0.52484528  0.00558121  0.89630617     0.01660
C1096       C  0.51375692  0.02770180  0.91403786    -0.00660
C1097       C  0.52157908  0.03712234  0.96819895    -0.12390
C1098       C  0.53844429  0.02290721  0.00885967     0.01540
H1099       H  0.54730566  0.47209874  0.92618282     0.14520
H1100       H  0.51382164  0.05523702  0.97882530     0.14520
C1101       C  0.54663003  0.03386762  0.06319085     0.36180
C1102       C  0.52210395  0.99969102  0.83440650     0.36080
N1103       N  0.55245316  0.04358030  0.10608714    -0.44170
N1104       N  0.52068645  0.49613180  0.78395547    -0.44160
C1105       C  0.61401602  0.40013479  0.29095421    -0.00580
C1106       C  0.63806477  0.39164700  0.27567899    -0.12450
C1107       C  0.65333040  0.40766933  0.24128642     0.01660
C1108       C  0.64542957  0.43334888  0.22610242    -0.00660
C1109       C  0.62169621  0.44168821  0.24365896    -0.12390
C1110       C  0.60544341  0.42509135  0.27145604     0.01540
H1111       H  0.64507750  0.37262112  0.29155015     0.14520
H1112       H  0.61481431  0.46114403  0.23233586     0.14520
C1113       C  0.58036600  0.43476960  0.28153416     0.36180
C1114       C  0.67696302  0.39736059  0.22338281     0.36080
N1115       N  0.56020907  0.44263946  0.28837168    -0.44170
N1116       N  0.69582507  0.38898090  0.20872193    -0.44160
C1117       C  0.63871529  0.39000964  0.72158143    -0.00580
C1118       C  0.65092687  0.41126443  0.69689881    -0.12450
C1119       C  0.66440574  0.42721267  0.73411347     0.01660
C1120       C  0.66713233  0.42105632  0.79699023    -0.00660
C1121       C  0.65887938  0.39714372  0.81910145    -0.12390
C1122       C  0.64401712  0.38225757  0.78270668     0.01540
H1123       H  0.64749093  0.41707185  0.64932802     0.14520
H1124       H  0.66150315  0.39118474  0.86654586     0.14520
C1125       C  0.63243710  0.36032341  0.81010802     0.36180
C1126       C  0.67396688  0.45028802  0.70697095     0.36080
N1127       N  0.62303032  0.34278785  0.83191178    -0.44170
N1128       N  0.68164280  0.46877224  0.68505362    -0.44160
C1129       C  0.95485430  0.46576498  0.20028449    -0.00580
C1130       C  0.94994914  0.46702557  0.26084951    -0.12450
C1131       C  0.96374823  0.45133872  0.30699539     0.01660
C1132       C  0.98347828  0.43403019  0.29377691    -0.00660
C1133       C  0.98652659  0.43091727  0.23306125    -0.12390
C1134       C  0.97235937  0.44616927  0.18684559     0.01540
H1135       H  0.93629740  0.48121006  0.27261886     0.14520
H1136       H  0.50108998  0.41761495  0.22149579     0.14520
C1137       C  0.97658456  0.44135611  0.12560208     0.36180
C1138       C  0.95739763  0.45365857  0.36812603     0.36080
N1139       N  0.98003406  0.43718010  0.07675458    -0.44170
N1140       N  0.95191234  0.45545136  0.41686969    -0.44160
C1141       C  0.99515382  0.44243614  0.71787027    -0.00580
C1142       C  0.97456050  0.45728875  0.68893831    -0.12450
C1143       C  0.95890457  0.47234700  0.72118138     0.01660
C1144       C  0.96290237  0.47195867  0.78404171    -0.00660
C1145       C  0.98244590  0.45595389  0.81359482    -0.12390
C1146       C  0.49895019  0.44181923  0.78103711     0.01540
H1147       H  0.97094857  0.45754393  0.64058729     0.14520
H1148       H  0.98558584  0.45542407  0.86211134     0.14520
C1149       C  0.51953637  0.42687816  0.81345552     0.36180
C1150       C  0.93812309  0.48726798  0.68949209     0.36080
N1151       N  0.53613450  0.41500028  0.83937375    -0.44170
N1152       N  0.92122771  0.99926293  0.66521451    -0.44160
C1153       C  0.59515897  0.04838960  0.20467342    -0.00580
C1154       C  0.57512242  0.03692783  0.23387661    -0.12450
C1155       C  0.56032270  0.04993213  0.27252767     0.01660
C1156       C  0.56569351  0.07506076  0.28523237    -0.00660
C1157       C  0.58638925  0.08619201  0.25845576    -0.12390
C1158       C  0.60081457  0.07341105  0.21837772     0.01540
H1159       H  0.57031052  0.01777631  0.22509609     0.14520
H1160       H  0.59115236  0.10525403  0.26817986     0.14520
C1161       C  0.62147194  0.08658685  0.19292678     0.36180
C1162       C  0.54000234  0.03656551  0.29915761     0.36080
N1163       N  0.63798793  0.09735244  0.17281071    -0.44170
N1164       N  0.52372462  0.02558630  0.31976918    -0.44160
C1165       C  0.61811136  0.06086077  0.76599919    -0.00580
C1166       C  0.61210718  0.08582485  0.78049989    -0.12450
C1167       C  0.59308766  0.10154030  0.74628740     0.01660
C1168       C  0.57891508  0.09202336  0.69787348    -0.00660
C1169       C  0.58606727  0.06768563  0.68214461    -0.12390
C1170       C  0.60555157  0.05259497  0.71407794     0.01540
H1171       H  0.62068539  0.09226411  0.82159696     0.14520
H1172       H  0.57528992  0.05949689  0.64671717     0.14520
C1173       C  0.61012622  0.02715848  0.69700557     0.36180
C1174       C  0.58674201  0.12618352  0.76541861     0.36080
N1175       N  0.61372538  0.50677822  0.68345056    -0.44170
N1176       N  0.58163205  0.14597802  0.78071527    -0.44160
C1177       C  0.92846778  0.13408412  0.27385950    -0.00580
C1178       C  0.92549778  0.14585824  0.21589936    -0.12450
C1179       C  0.91242513  0.13408556  0.17020109     0.01660
C1180       C  0.90367502  0.10896910  0.18187227    -0.00660
C1181       C  0.90319728  0.09931093  0.24190485    -0.12390
C1182       C  0.91466751  0.11221573  0.28804254     0.01540
H1183       H  0.93528422  0.16313650  0.20513484     0.14520
H1184       H  0.89524135  0.08103118  0.25261380     0.14520
C1185       C  0.91328335  0.10172645  0.34926294     0.36180
C1186       C  0.91033903  0.14786565  0.11151206     0.36080
N1187       N  0.91166611  0.09304617  0.39797902    -0.44170
N1188       N  0.90876251  0.15940369  0.06509756    -0.44160
C1189       C  0.90744140  0.11563839  0.76531641    -0.00580
C1190       C  0.92747830  0.12867053  0.79186492    -0.12450
C1191       C  0.94421583  0.14243576  0.75623187     0.01660
C1192       C  0.94021586  0.14437265  0.69297619    -0.00660
C1193       C  0.91762765  0.13479029  0.66808596    -0.12390
C1194       C  0.90190218  0.11990476  0.70310393     0.01540
H1195       H  0.93203391  0.12549174  0.83988383     0.14520
H1196       H  0.91346645  0.13649725  0.62002916     0.14520
C1197       C  0.88146328  0.10728584  0.67358184     0.36180
C1198       C  0.96581797  0.15329452  0.78545816     0.36080
N1199       N  0.86513827  0.09704975  0.65008210    -0.44170
N1200       N  0.98308369  0.16207715  0.80904349    -0.44160
C1201       C  0.53986045  0.28712991  0.48788183    -0.00580
C1202       C  0.51480931  0.28368156  0.46635845    -0.12450
C1203       C  0.50384097  0.25998696  0.47479697     0.01660
C1204       C  0.51799941  0.23914565  0.50555340    -0.00660
C1205       C  0.54304139  0.24261309  0.52662036    -0.12390
C1206       C  0.55408761  0.26608327  0.51761662     0.01540
H1207       H  0.50346146  0.29973300  0.44468750     0.14520
H1208       H  0.55445786  0.22660670  0.54834600     0.14520
C1209       C  0.58040491  0.26764685  0.53771240     0.36180
C1210       C  0.97778293  0.25784030  0.45333708     0.36080
N1211       N  0.60151720  0.26863584  0.55378957    -0.44170
N1212       N  0.95687569  0.25618191  0.43622182    -0.44160
C1213       C  0.53971005  0.49305293  0.57116650    -0.00580
C1214       C  0.51404000  0.49509651  0.58099877    -0.12450
C1215       C  0.49785320  0.01066844  0.54187973     0.01660
C1216       C  0.50771754  0.02433613  0.49296695    -0.00660
C1217       C  0.53335626  0.02196312  0.48250156    -0.12390
C1218       C  0.54960959  0.00672367  0.52241968     0.01540
H1219       H  0.50650376  0.48339108  0.61699388     0.14520
H1220       H  0.54093568  0.03309842  0.44548748     0.14520
C1221       C  0.57640440  0.00579916  0.51377637     0.36180
C1222       C  0.97115880  0.01195429  0.55107636     0.36080
N1223       N  0.59787157  0.00536053  0.50704448    -0.44170
N1224       N  0.94965653  0.01317362  0.55698240    -0.44160
Zr1225     Zr  0.51614880  0.65202991  0.58774301     2.17510
O1226       O  0.53599395  0.67579488  0.66577631    -0.51750
O1227       O  0.98365602  0.65132469  0.66430902    -0.74960
O1228       O  0.51702219  0.69755544  0.55461529    -0.81740
O1229       O  0.53682116  0.58994432  0.65664510    -0.83490
O1230       O  0.99626973  0.70629149  0.46207208    -0.79110
O1231       O  0.55337557  0.62806946  0.64455776    -0.90750
O1232       O  0.95236291  0.65631985  0.59521444    -0.76710
O1233       O  0.97657435  0.65870895  0.52785813    -0.86200
O1234       O  0.99417890  0.61344146  0.59985063    -0.85810
O1235       O  0.52495721  0.66111574  0.48227637    -0.72650
O1236       O  0.54234302  0.62076120  0.54574201    -0.84780
Zr1237     Zr  0.99298209  0.59766131  0.39348415     2.26420
Zr1238     Zr  0.98485957  0.66641890  0.42346565     2.06270
Zr1239     Zr  0.51972420  0.58267954  0.55702342     2.10050
Zr1240     Zr  0.95531244  0.62006368  0.53882318     1.78760
O1241       O  0.55876739  0.55897976  0.54435371    -0.93590
O1242       O  0.91546166  0.63908327  0.49113659    -0.41390
O1243       O  0.98084604  0.58955354  0.49623434    -0.78030
O1244       O  0.96480418  0.62644923  0.43694548    -0.96710
O1245       O  0.51307533  0.63700763  0.38133820    -0.90020
O1246       O  0.53161828  0.59124840  0.45593846    -0.92860
C1247       C  0.95969808  0.65265768  0.65016340     1.00890
C1248       C  0.55501997  0.60453826  0.66610940     1.13820
C1249       C  0.00904111  0.71285808  0.50870523     1.04600
O1250       O  0.94833673  0.69591414  0.41854463    -0.95010
O1251       O  0.95256883  0.65710994  0.34464376    -0.90760
O1252       O  0.96929437  0.62149447  0.31054287    -0.83900
C1253       C  0.95160108  0.63851470  0.31092831     1.11240
O1254       O  0.58418094  0.65764831  0.48059927    -0.96990
Zr1255     Zr  0.55183651  0.63028204  0.44237485     1.88940
O1256       O  0.52712671  0.58578445  0.33043744    -0.73640
O1257       O  0.50143181  0.68944149  0.33688279    -0.52900
O1258       O  0.55880409  0.66216887  0.36092558    -0.97580
O1259       O  0.59305554  0.60895793  0.46956252    -0.54800
O1260       O  0.56299353  0.60431464  0.36130094    -0.74150
C1261       C  0.55093924  0.58943685  0.32795082     0.98190
O1262       O  0.96310068  0.57654959  0.32830452    -0.62970
O1263       O  0.01461977  0.54564463  0.62647272    -0.57780
O1264       O  0.99443478  0.55233913  0.40934698    -0.94460
O1265       O  0.48714787  0.56305520  0.49813121    -0.92890
O1266       O  0.94876055  0.58778707  0.62037638    -0.93240
O1267       O  0.91603346  0.59765945  0.54349072    -0.92030
C1268       C  0.49377808  0.54610937  0.46467918     1.17030
H1269       H  0.99190477  0.60804016  0.64135064     0.32980
H1270       H  0.94821776  0.62538484  0.41771637     0.43830
H1271       H  0.54184709  0.57735227  0.44404745     0.37350
H1272       H  0.53463750  0.67608206  0.47658209     0.33830
H1273       H  0.90833358  0.64960290  0.52099205     0.25620
H1274       H  0.98881152  0.70352947  0.32536341     0.31560
H1275       H  0.57302282  0.65501079  0.34022898     0.37470
H1276       H  0.95182193  0.59572405  0.65852913     0.31930
H1277       H  0.53157795  0.54135786  0.64673214     0.30810
H1278       H  0.57185343  0.57183151  0.54428072     0.32490
H1279       H  0.60407065  0.61537165  0.43809316     0.31450
H1280       H  0.91894439  0.58232101  0.52191987     0.35450
H1281       H  0.97345555  0.56559320  0.30473964     0.28190
H1282       H  0.52336339  0.68930812  0.67260601     0.32420
H1283       H  0.59493490  0.66171153  0.44684421     0.35270
H1284       H  0.00438699  0.55185904  0.65814749     0.27880
H1285       H  0.95376728  0.56474504  0.35456936     0.40750
H1286       H  0.94315953  0.69544845  0.46034742     0.30810
H1287       H  0.92031307  0.65173254  0.45932375     0.38420
H1288       H  0.59080948  0.59102636  0.46164990     0.30270
H1289       H  0.51644538  0.69777729  0.35356113     0.30340
H1290       H  0.54982325  0.68479065  0.64661602     0.30600
Zr1291     Zr  0.57072463  0.92053372  0.62484181     2.17510
O1292       O  0.60611032  0.94305064  0.66749305    -0.51750
O1293       O  0.53585582  0.92717571  0.69043747    -0.74960
O1294       O  0.56169915  0.96424515  0.64541794    -0.81740
O1295       O  0.61609975  0.86805111  0.64484239    -0.83490
O1296       O  0.55130389  0.95132803  0.56065121    -0.79110
O1297       O  0.59467423  0.89322595  0.70120089    -0.90750
O1298       O  0.50022341  0.91699882  0.63749873    -0.76710
O1299       O  0.53158338  0.92681752  0.56177347    -0.86200
O1300       O  0.55173960  0.88025636  0.62702647    -0.85890
O1301       O  0.58091662  0.93571056  0.52120455    -0.72650
O1302       O  0.59906760  0.89433188  0.57454193    -0.84780
Zr1303     Zr  0.54703094  0.87545646  0.41554098     2.26420
Zr1304     Zr  0.54100325  0.94111421  0.46168362     2.06270
Zr1305     Zr  0.58068353  0.85432373  0.57768318     2.10050
Zr1306     Zr  0.51256409  0.88735250  0.56690674     1.78760
O1307       O  0.61578437  0.82435910  0.56814583    -0.93590
O1308       O  0.97038405  0.90469070  0.53260687    -0.41390
O1309       O  0.54102428  0.86134007  0.51905891    -0.78030
O1310       O  0.51895880  0.90216099  0.46469560    -0.96710
O1311       O  0.56844337  0.91417328  0.41390326    -0.90020
O1312       O  0.58707263  0.86721505  0.47425331    -0.92860
C1313       C  0.51158529  0.92771066  0.68032443     1.00890
C1314       C  0.61527852  0.88222419  0.68904199     1.13820
C1315       C  0.55184244  0.96951731  0.59322267     1.04600
O1316       O  0.50876203  0.97488689  0.44994845    -0.95010
O1317       O  0.51068095  0.94048399  0.37745575    -0.90760
O1318       O  0.51341817  0.90086500  0.34585409    -0.83900
C1319       C  0.50376017  0.92407470  0.34161812     1.11240
O1320       O  0.64264595  0.93206157  0.50682750    -0.96990
Zr1321     Zr  0.60756222  0.90673540  0.47378891     1.88940
O1322       O  0.57765560  0.88485158  0.33877513    -0.73640
O1323       O  0.56284056  0.97246548  0.40044011    -0.52900
O1324       O  0.61810649  0.94088650  0.40108801    -0.97580
O1325       O  0.64587072  0.88116292  0.50694538    -0.54800
O1326       O  0.61543813  0.88270986  0.39009365    -0.74150
C1327       C  0.60182897  0.88681508  0.34129484     0.98190
O1328       O  0.53237585  0.84812217  0.33900719    -0.62970
O1329       O  0.57204405  0.82675889  0.66603390    -0.57780
O1330       O  0.54213960  0.82973384  0.44287021    -0.94460
O1331       O  0.56303406  0.81805219  0.53406153    -0.92890
O1332       O  0.50358936  0.85799890  0.65173180    -0.93240
O1333       O  0.98408367  0.85483082  0.53718213    -0.92030
C1334       C  0.54937827  0.81321751  0.48714359     1.17030
H1335       H  0.54932256  0.87376550  0.66777389     0.32980
H1336       H  0.50200215  0.90369734  0.44612847     0.43830
H1337       H  0.59683653  0.85378961  0.45864444     0.37350
H1338       H  0.59017818  0.95118725  0.52086377     0.33830
H1339       H  0.96020001  0.90207462  0.56798775     0.25620
H1340       H  0.55372469  0.98887435  0.40344528     0.31560
H1341       H  0.63335663  0.93443574  0.38296661     0.37470
H1342       H  0.98861531  0.86580365  0.66839051     0.31930
H1343       H  0.57721378  0.83628250  0.70080906     0.30810
H1344       H  0.61962256  0.81619287  0.60932296     0.32490
H1345       H  0.65553812  0.88049470  0.47066351     0.31450
H1346       H  0.98802334  0.85208319  0.49547276     0.35450
H1347       H  0.51369718  0.84890720  0.33952843     0.28190
H1348       H  0.60088614  0.94959495  0.70523236     0.32420
H1349       H  0.65680382  0.92812694  0.48188669     0.35270
H1350       H  0.55336023  0.82660696  0.66553881     0.27880
H1351       H  0.03580907  0.85737884  0.30029791     0.40750
H1352       H  0.99529746  0.96820010  0.47470197     0.30810
H1353       H  0.97227088  0.92327148  0.52733756     0.38420
H1354       H  0.64006433  0.86371936  0.51474932     0.30270
H1355       H  0.57958729  0.97392291  0.42174282     0.30340
H1356       H  0.60834737  0.95814085  0.63942416     0.30600
Zr1357     Zr  0.67292650  0.99866577  0.89818466     2.17510
O1358       O  0.69631762  0.51432939  0.81338921    -0.51750
O1359       O  0.67311622  0.96393372  0.82844022    -0.74960
O1360       O  0.71824997  0.00222553  0.93032038    -0.81740
O1361       O  0.60821064  0.53091852  0.84019383    -0.83490
O1362       O  0.72629505  0.98349920  0.02541488    -0.79110
O1363       O  0.65031644  0.53411715  0.82959229    -0.90750
O1364       O  0.67664807  0.93132399  0.89698069    -0.76710
O1365       O  0.67968766  0.96042440  0.96474703    -0.86200
O1366       O  0.63517941  0.97546012  0.88885643    -0.85890
O1367       O  0.68041406  0.51067188  0.00111813    -0.72650
O1368       O  0.64067343  0.52523262  0.93448513    -0.84780
Zr1369     Zr  0.61633465  0.97802226  0.09140762     2.26420
Zr1370     Zr  0.68691314  0.97173302  0.06623052     2.06270
Zr1371     Zr  0.60340228  0.50166738  0.92444611     2.10050
Zr1372     Zr  0.64165951  0.93790846  0.95701232     1.78760
O1373       O  0.57108018  0.53570230  0.91296579    -0.93590
O1374       O  0.66186977  0.89836562  0.00347375    -0.41390
O1375       O  0.60929093  0.96434483  0.99071172    -0.78030
O1376       O  0.64810638  0.94955880  0.05739688    -0.96710
O1377       O  0.65492135  0.99946921  0.10022112    -0.90020
O1378       O  0.60983458  0.51564675  0.02299449    -0.92860
C1379       C  0.67407978  0.93975979  0.84216922     1.00890
C1380       C  0.62669832  0.54096448  0.81521382     1.13820
C1381       C  0.73321887  0.99552965  0.97745661     1.04600
O1382       O  0.71484928  0.93389413  0.07478494    -0.95010
O1383       O  0.67799299  0.94539010  0.15791833    -0.90760
O1384       O  0.64839523  0.97341900  0.17278183    -0.83900
C1385       C  0.65891952  0.95169812  0.18644348     1.11240
O1386       O  0.67166581  0.57223361  0.99425927    -0.96990
Zr1387     Zr  0.64772928  0.53725629  0.03600711     1.88940
O1388       O  0.60402250  0.01039765  0.15661294    -0.73640
O1389       O  0.71073676  0.99102363  0.14613684    -0.52900
O1390       O  0.68028533  0.54765914  0.11102928    -0.97580
O1391       O  0.62222021  0.57587754  0.00438342    -0.54800
O1392       O  0.62259955  0.54616741  0.12213116    -0.74150
C1393       C  0.60841257  0.53410278  0.15866677     0.98190
O1394       O  0.59709800  0.93945653  0.13110701    -0.62970
O1395       O  0.57756693  0.98329986  0.84623870    -0.57780
O1396       O  0.57102720  0.98404274  0.08599650    -0.94460
O1397       O  0.58494371  0.97554928  0.00164682    -0.92890
O1398       O  0.61500975  0.92697388  0.87034463    -0.93240
O1399       O  0.61539391  0.90256129  0.98501058    -0.92030
C1400       C  0.56708833  0.98423920  0.02974598     1.17030
H1401       H  0.63017580  0.97210934  0.84805226     0.32980
H1402       H  0.64884720  0.93363036  0.08183391     0.43830
H1403       H  0.59566785  0.52618131  0.03242494     0.37350
H1404       H  0.69489738  0.52107730  0.00481313     0.33830
H1405       H  0.66512195  0.88783863  0.97004576     0.25620
H1406       H  0.72609734  0.97981239  0.15519735     0.31560
H1407       H  0.67192341  0.56008240  0.13479572     0.37470
H1408       H  0.61443049  0.90825931  0.87333922     0.31930
H1409       H  0.58595651  0.98742039  0.80860045     0.30810
H1410       H  0.57973849  0.55072776  0.92631531     0.32490
H1411       H  0.62499379  0.58697784  0.03755575     0.31450
H1412       H  0.60239949  0.90995996  0.00902204     0.35450
H1413       H  0.58287327  0.93656110  0.10187076     0.28190
H1414       H  0.71254248  0.50429712  0.81660693     0.32420
H1415       H  0.67233027  0.58471873  0.02490369     0.35270
H1416       H  0.58037080  0.96473690  0.85464713     0.27880
H1417       H  0.60954983  0.92554361  0.12609534     0.40750
H1418       H  0.71849075  0.93111875  0.03290725     0.30810
H1419       H  0.67886304  0.90312001  0.01860128     0.38420
H1420       H  0.60446614  0.57093282  0.00679387     0.30270
H1421       H  0.71693515  0.00683642  0.12648551     0.30340
H1422       H  0.70086727  0.53169561  0.82178845     0.30600
Zr1423     Zr  0.93811929  0.54884250  0.86188337     2.17510
O1424       O  0.95738963  0.58292463  0.80248751    -0.51750
O1425       O  0.94459679  0.51214863  0.80347494    -0.74960
O1426       O  0.98182736  0.54270349  0.83934819    -0.81740
O1427       O  0.88549058  0.59386277  0.84469429    -0.83490
O1428       O  0.47023794  0.52978302  0.92500928    -0.79110
O1429       O  0.90884216  0.57137980  0.78699727    -0.90750
O1430       O  0.93826467  0.97760943  0.86669168    -0.76710
O1431       O  0.94606739  0.51114056  0.93062711    -0.86200
O1432       O  0.89856676  0.52871991  0.86686172    -0.85890
O1433       O  0.95484085  0.56130105  0.96132697    -0.72650
O1434       O  0.91193648  0.57762194  0.91020210    -0.84780
Zr1435     Zr  0.89610338  0.53023300  0.07998879     2.26420
Zr1436     Zr  0.96118477  0.52267584  0.02744462     2.06270
Zr1437     Zr  0.87246452  0.55823547  0.91397842     2.10050
Zr1438     Zr  0.90716339  0.99123578  0.93368018     1.78760
O1439       O  0.83750358  0.58936546  0.89069993    -0.93590
O1440       O  0.92430704  0.94957941  0.97451975    -0.41390
O1441       O  0.88083149  0.52027383  0.97994859    -0.78030
O1442       O  0.92232422  0.50090162  0.03254256    -0.96710
O1443       O  0.93467706  0.55137021  0.07338738    -0.90020
O1444       O  0.88688398  0.56806625  0.01313197    -0.92860
C1445       C  0.94742191  0.48825749  0.81984165     1.00890
C1446       C  0.89874633  0.59248363  0.79865966     1.13820
C1447       C  0.48828944  0.53379666  0.89190503     1.04600
O1448       O  0.99693707  0.99247990  0.03862218    -0.95010
O1449       O  0.96098412  0.49239115  0.11341490    -0.90760
O1450       O  0.92260871  0.49760280  0.15135830    -0.83900
C1451       C  0.94522523  0.48666368  0.15275153     1.11240
O1452       O  0.95379692  0.62147942  0.96903023    -0.96990
Zr1453     Zr  0.92612546  0.58876023  0.00638539     1.88940
O1454       O  0.89944825  0.56722883  0.14358949    -0.73640
O1455       O  0.98781428  0.54773264  0.09071228    -0.52900
O1456       O  0.95599186  0.60023066  0.08638704    -0.97580
O1457       O  0.90221379  0.62696768  0.96374148    -0.54800
O1458       O  0.89971009  0.60219566  0.07989786    -0.74150
C1459       C  0.89979861  0.59168649  0.13268469     0.98190
O1460       O  0.87113239  0.01803704  0.16455329    -0.62970
O1461       O  0.84677552  0.53691212  0.84061936    -0.57780
O1462       O  0.85179600  0.52128464  0.05148432    -0.94460
O1463       O  0.83906443  0.55329956  0.98252343    -0.92890
O1464       O  0.87840211  0.97987015  0.85163294    -0.93240
O1465       O  0.87526909  0.96261692  0.96861869    -0.92030
C1466       C  0.83458546  0.53317633  0.01522761     1.17030
H1467       H  0.89203859  0.52519707  0.82720817     0.32980
H1468       H  0.92359826  0.98416772  0.05309978     0.43830
H1469       H  0.87328790  0.57811836  0.02719322     0.37350
H1470       H  0.97018741  0.57059957  0.95838310     0.33830
H1471       H  0.92199766  0.93858919  0.94098466     0.25620
H1472       H  0.00072040  0.53547093  0.11120177     0.31560
H1473       H  0.97289444  0.59874547  0.07039209     0.37470
H1474       H  0.88783475  0.96647954  0.83284450     0.31930
H1475       H  0.82943248  0.53791398  0.85444408     0.30810
H1476       H  0.83355773  0.58945334  0.84680085     0.32490
H1477       H  0.88426832  0.62239707  0.96396581     0.31450
H1478       H  0.87233570  0.96732932  0.00961707     0.35450
H1479       H  0.87244145  0.99926484  0.16889088     0.28190
H1480       H  0.96386397  0.57590443  0.76647652     0.32420
H1481       H  0.95064026  0.63611300  0.99280944     0.35270
H1482       H  0.84607191  0.54846930  0.80337427     0.27880
H1483       H  0.88105525  0.02319353  0.20028104     0.40750
H1484       H  0.99353453  0.98117540  0.00613400     0.30810
H1485       H  0.94281095  0.95157088  0.97940047     0.38420
H1486       H  0.90555905  0.62871619  0.92066327     0.30270
H1487       H  0.99702986  0.55934984  0.06405614     0.30340
H1488       H  0.97232825  0.58829333  0.82651233     0.30600
C1489       C  0.75989816  0.00377235  0.98069701    -0.00580
C1490       C  0.77749864  0.99065523  0.02329365    -0.12450
C1491       C  0.80154309  0.49984753  0.03668330     0.01660
C1492       C  0.80877892  0.52280991  0.00680008    -0.00660
C1493       C  0.79138094  0.53549746  0.96303791    -0.12390
C1494       C  0.76735474  0.52637043  0.94987443     0.01540
H1495       H  0.77223978  0.97326883  0.04761710     0.14520
H1496       H  0.79639524  0.55296149  0.93869820     0.14520
C1497       C  0.75061403  0.54166183  0.90677022     0.36180
C1498       C  0.81796817  0.98523069  0.08181766     0.36080
N1499       N  0.73773937  0.55452419  0.87221306    -0.44170
N1500       N  0.83089903  0.97330611  0.11811577    -0.44160
C1501       C  0.54680973  0.99865209  0.99487906    -0.00580
C1502       C  0.53994714  0.99020645  0.93831586    -0.12450
C1503       C  0.52484528  0.50558121  0.89630617     0.01660
C1504       C  0.51375692  0.52770180  0.91403787    -0.00660
C1505       C  0.52157908  0.53712234  0.96819895    -0.12390
C1506       C  0.53844428  0.52290721  0.00885968     0.01540
H1507       H  0.54730566  0.97209873  0.92618282     0.14520
H1508       H  0.51382164  0.55523702  0.97882531     0.14520
C1509       C  0.54663003  0.53386761  0.06319086     0.36180
C1510       C  0.52210395  0.49969103  0.83440650     0.36080
N1511       N  0.55245315  0.54358029  0.10608715    -0.44170
N1512       N  0.52068645  0.99613179  0.78395548    -0.44160
C1513       C  0.61401602  0.90013479  0.29095420    -0.00580
C1514       C  0.63806477  0.89164700  0.27567898    -0.12450
C1515       C  0.65333040  0.90766932  0.24128641     0.01660
C1516       C  0.64542957  0.93334888  0.22610241    -0.00660
C1517       C  0.62169622  0.94168820  0.24365895    -0.12390
C1518       C  0.60544341  0.92509135  0.27145604     0.01540
H1519       H  0.64507751  0.87262111  0.29155014     0.14520
H1520       H  0.61481431  0.96114403  0.23233586     0.14520
C1521       C  0.58036601  0.93476959  0.28153416     0.36180
C1522       C  0.67696302  0.89736059  0.22338280     0.36080
N1523       N  0.56020908  0.94263945  0.28837168    -0.44170
N1524       N  0.69582507  0.88898089  0.20872192    -0.44160
C1525       C  0.63871529  0.89000964  0.72158142    -0.00580
C1526       C  0.65092687  0.91126442  0.69689880    -0.12450
C1527       C  0.66440574  0.92721266  0.73411346     0.01660
C1528       C  0.66713234  0.92105631  0.79699022    -0.00660
C1529       C  0.65887938  0.89714371  0.81910144    -0.12390
C1530       C  0.64401712  0.88225756  0.78270667     0.01540
H1531       H  0.64749093  0.91707185  0.64932801     0.14520
H1532       H  0.66150316  0.89118472  0.86654585     0.14520
C1533       C  0.63243711  0.86032340  0.81010801     0.36180
C1534       C  0.67396688  0.95028801  0.70697094     0.36080
N1535       N  0.62303033  0.84278784  0.83191177    -0.44170
N1536       N  0.68164280  0.96877223  0.68505361    -0.44160
C1537       C  0.95485429  0.96576498  0.20028450    -0.00580
C1538       C  0.94994914  0.96702558  0.26084952    -0.12450
C1539       C  0.96374823  0.95133872  0.30699541     0.01660
C1540       C  0.98347827  0.93403019  0.29377692    -0.00660
C1541       C  0.98652659  0.93091727  0.23306126    -0.12390
C1542       C  0.97235936  0.94616928  0.18684560     0.01540
H1543       H  0.93629740  0.98121007  0.27261887     0.14520
H1544       H  0.50108998  0.91761495  0.22149578     0.14520
C1545       C  0.97658455  0.94135611  0.12560209     0.36180
C1546       C  0.95739763  0.95365858  0.36812605     0.36080
N1547       N  0.98003406  0.93718010  0.07675459    -0.44170
N1548       N  0.95191234  0.95545137  0.41686970    -0.44160
C1549       C  0.99515382  0.94243614  0.71787027    -0.00580
C1550       C  0.97456050  0.95728876  0.68893832    -0.12450
C1551       C  0.95890457  0.97234700  0.72118139     0.01660
C1552       C  0.96290237  0.97195868  0.78404173    -0.00660
C1553       C  0.98244590  0.95595389  0.81359484    -0.12390
C1554       C  0.49895019  0.94181922  0.78103710     0.01540
H1555       H  0.97094856  0.95754394  0.64058730     0.14520
H1556       H  0.98558584  0.95542407  0.86211135     0.14520
C1557       C  0.51953637  0.92687814  0.81345551     0.36180
C1558       C  0.93812309  0.98726798  0.68949210     0.36080
N1559       N  0.53613449  0.91500027  0.83937374    -0.44170
N1560       N  0.92122772  0.49926293  0.66521450    -0.44160
C1561       C  0.59515896  0.54838960  0.20467343    -0.00580
C1562       C  0.57512242  0.53692783  0.23387662    -0.12450
C1563       C  0.56032269  0.54993213  0.27252768     0.01660
C1564       C  0.56569350  0.57506076  0.28523238    -0.00660
C1565       C  0.58638924  0.58619201  0.25845576    -0.12390
C1566       C  0.60081456  0.57341105  0.21837772     0.01540
H1567       H  0.57031052  0.51777631  0.22509611     0.14520
H1568       H  0.59115235  0.60525404  0.26817986     0.14520
C1569       C  0.62147193  0.58658685  0.19292678     0.36180
C1570       C  0.54000233  0.53656551  0.29915762     0.36080
N1571       N  0.63798791  0.59735245  0.17281071    -0.44170
N1572       N  0.52372461  0.52558630  0.31976919    -0.44160
C1573       C  0.61811136  0.56086077  0.76599920    -0.00580
C1574       C  0.61210717  0.58582485  0.78049991    -0.12450
C1575       C  0.59308766  0.60154030  0.74628742     0.01660
C1576       C  0.57891508  0.59202336  0.69787349    -0.00660
C1577       C  0.58606727  0.56768563  0.68214461    -0.12390
C1578       C  0.60555157  0.55259498  0.71407795     0.01540
H1579       H  0.62068538  0.59226411  0.82159698     0.14520
H1580       H  0.57528992  0.55949689  0.64671717     0.14520
C1581       C  0.61012622  0.52715848  0.69700557     0.36180
C1582       C  0.58674200  0.62618352  0.76541864     0.36080
N1583       N  0.61372538  0.00677821  0.68345056    -0.44170
N1584       N  0.58163204  0.64597802  0.78071530    -0.44160
C1585       C  0.92846779  0.63408412  0.27385948    -0.00580
C1586       C  0.92549779  0.64585824  0.21589934    -0.12450
C1587       C  0.91242514  0.63408556  0.17020108     0.01660
C1588       C  0.90367503  0.60896910  0.18187225    -0.00660
C1589       C  0.90319729  0.59931093  0.24190484    -0.12390
C1590       C  0.91466752  0.61221573  0.28804253     0.01540
H1591       H  0.93528423  0.66313650  0.20513482     0.14520
H1592       H  0.89524136  0.58103118  0.25261379     0.14520
C1593       C  0.91328336  0.60172645  0.34926293     0.36180
C1594       C  0.91033904  0.64786565  0.11151205     0.36080
N1595       N  0.91166611  0.59304617  0.39797901    -0.44170
N1596       N  0.90876253  0.65940368  0.06509755    -0.44160
C1597       C  0.90744141  0.61563839  0.76531640    -0.00580
C1598       C  0.92747831  0.62867053  0.79186491    -0.12450
C1599       C  0.94421584  0.64243576  0.75623186     0.01660
C1600       C  0.94021586  0.64437265  0.69297618    -0.00660
C1601       C  0.91762765  0.63479029  0.66808595    -0.12390
C1602       C  0.90190218  0.61990476  0.70310392     0.01540
H1603       H  0.93203391  0.62549174  0.83988382     0.14520
H1604       H  0.91346645  0.63649725  0.62002915     0.14520
C1605       C  0.88146329  0.60728584  0.67358183     0.36180
C1606       C  0.96581797  0.65329452  0.78545815     0.36080
N1607       N  0.86513827  0.59704975  0.65008209    -0.44170
N1608       N  0.98308370  0.66207714  0.80904349    -0.44160
C1609       C  0.53986045  0.78712991  0.48788182    -0.00580
C1610       C  0.51480931  0.78368156  0.46635843    -0.12450
C1611       C  0.50384097  0.75998696  0.47479696     0.01660
C1612       C  0.51799940  0.73914565  0.50555340    -0.00660
C1613       C  0.54304139  0.74261309  0.52662037    -0.12390
C1614       C  0.55408760  0.76608326  0.51761663     0.01540
H1615       H  0.50346147  0.79973300  0.44468748     0.14520
H1616       H  0.55445785  0.72660670  0.54834602     0.14520
C1617       C  0.58040491  0.76764684  0.53771241     0.36180
C1618       C  0.97778293  0.75784030  0.45333710     0.36080
N1619       N  0.60151719  0.76863584  0.55378959    -0.44170
N1620       N  0.95687569  0.75618191  0.43622186    -0.44160
C1621       C  0.53971006  0.99305293  0.57116649    -0.00580
C1622       C  0.51404000  0.99509651  0.58099875    -0.12450
C1623       C  0.49785320  0.51066845  0.54187974     0.01660
C1624       C  0.50771753  0.52433613  0.49296696    -0.00660
C1625       C  0.53335626  0.52196313  0.48250157    -0.12390
C1626       C  0.54960958  0.50672368  0.52241969     0.01540
H1627       H  0.50650377  0.98339108  0.61699386     0.14520
H1628       H  0.54093567  0.53309842  0.44548748     0.14520
C1629       C  0.57640439  0.50579917  0.51377637     0.36180
C1630       C  0.97115880  0.51195429  0.55107635     0.36080
N1631       N  0.59787156  0.50536053  0.50704447    -0.44170
N1632       N  0.94965653  0.51317363  0.55698239    -0.44160
loop_ 
_geom_bond_atom_site_label_1 
_geom_bond_atom_site_label_2 
_geom_bond_distance 
_geom_bond_site_symmetry_2 
_ccdc_geom_bond_type 
Zr1           O2   2.439       .  S
Zr1           O4   2.466       .  S
Zr1           O7   2.519       .  S
Zr1         O819   2.507   1_455  S
Zr1          O11   2.447       .  S
Zr1          O12   2.411       .  S
Zr1         O825   2.412   1_455  S
Zr1         O826   2.392   1_455  S
O2           H58   0.990       .  S
O2           H66   0.990       .  S
O3         Zr817   2.507       .  S
O3           C23   1.287       .  A
O4          C841   1.293       .  A
O5          Zr15   2.415       .  S
O5           C24   1.275       .  A
O6          Zr14   2.427       .  S
O6           C25   1.285       .  A
O7           C24   1.296       .  A
O8          Zr16   2.388       .  S
O8           C23   1.262       .  A
O9          Zr14   2.409       .  S
O9          Zr16   2.374       .  S
O9         Zr817   2.412       .  S
O10         Zr16   2.394       .  S
O10        Zr817   2.392       .  S
O10        Zr831   2.382       .  S
O10          H45   0.965       .  S
O11         Zr31   2.394       .  S
O11        Zr830   2.420   1_455  S
O11          H48   0.964       .  S
O12         Zr15   2.386       .  S
O12         Zr31   2.415       .  S
Zr13         O38   2.444       .  S
Zr13         O40   2.394       .  S
Zr13         O28   2.410       .  S
Zr13        O848   2.462       .  S
Zr13         O19   2.436       .  S
Zr13         O20   2.402       .  S
Zr13        O837   2.377       .  S
Zr13        O838   2.400       .  S
Zr14         O26   2.435       .  S
Zr14        O849   2.433       .  S
Zr14         O27   2.467       .  S
Zr14         O20   2.408       .  S
Zr14        O827   2.420       .  S
Zr14        O837   2.410       .  S
Zr15         O17   2.427       .  S
Zr15        O855   2.434       .  S
Zr15         O41   2.419   1_455  S
Zr15         O22   2.399       .  S
Zr15        O826   2.382   1_455  S
Zr15        O835   2.393   1_455  S
Zr16         O42   2.446       .  S
Zr16         O43   2.437       .  S
Zr16         O18   2.447       .  S
Zr16         O19   2.369       .  S
Zr16         O20   2.366       .  S
O17          H54   0.989       .  S
O18          H49   0.989       .  S
O18          H63   0.990       .  S
O19        Zr831   2.393       .  S
O20          H46   0.959       .  S
O21         Zr31   2.390       .  S
O21        Zr829   2.377   1_455  S
O21        Zr830   2.410   1_455  S
O22         Zr31   2.368       .  S
O22        Zr829   2.400   1_455  S
O22          H47   0.964       .  S
C23         C376   1.507       .  S
C24         C352   1.514       .  S
C25         O820   1.293       .  A
C25        C1204   1.484       .  S
O26          H62   0.990       .  S
O27          C29   1.289       .  A
O28          C29   1.278       .  A
C29         C361   1.471       .  S
O30         Zr31   2.441       .  S
O30          H59   0.990       .  S
Zr31         O34   2.436       .  S
Zr31         O35   2.440       .  S
Zr31         O36   2.454       .  S
O32        Zr829   2.462   1_455  S
O32          C37   1.288       .  A
O33        Zr830   2.433   1_455  S
O33          H65   0.990       .  S
O33         H866   0.990   1_455  S
O34          H51   0.990       .  S
O35          H55   0.990       .  S
O35          H64   0.990       .  S
O36          C37   1.286       .  A
C37         C340   1.510       .  S
O38          H57   0.990       .  S
O38          H61   0.990       .  S
O39        Zr831   2.434       .  S
O39          H60   0.990       .  S
O39         H869   0.990       .  S
O40         C860   1.257       .  A
O41          C44   1.269       .  A
O42          H52   0.988       .  S
O43          H56   0.990       .  S
C44         O856   1.257       .  A
C44         C400   1.426   1_655  S
H50         O849   0.990       .  S
H53         O855   0.990       .  S
Zr67         O68   2.441       .  S
Zr67         O69   2.467       .  S
Zr67         O70   2.433       .  S
Zr67         O73   2.408       .  S
Zr67         O75   2.428       .  S
Zr67         O76   2.388       .  S
Zr67         O77   2.490       .  S
Zr67         O78   2.404       .  S
O68         H124   0.991       .  S
O68         H132   0.990       .  S
O69          C89   1.291       .  A
O70          C91   1.253       .  A
O71         Zr81   2.493       .  S
O71          C90   1.291       .  A
O72         Zr80   2.356       .  S
O72          C91   1.254       .  A
O73          C90   1.275       .  A
O74         Zr82   2.419       .  S
O74          C89   1.280       .  A
O75         Zr80   2.394       .  S
O75         Zr82   2.350       .  S
O76         Zr81   2.404       .  S
O76         Zr82   2.399       .  S
O76         H111   0.966       .  S
O77         Zr80   2.420       .  S
O77         Zr97   2.405       .  S
O77         H114   0.970       .  S
O78         Zr81   2.361       .  S
O78         Zr97   2.372       .  S
Zr79        O104   2.437       .  S
Zr79         O98   2.473       .  S
Zr79        O106   2.474       .  S
Zr79         O94   2.556       .  S
Zr79         O85   2.419       .  S
Zr79         O86   2.396       .  S
Zr79         O87   2.377       .  S
Zr79         O88   2.428       .  S
Zr80         O99   2.438       .  S
Zr80         O92   2.415       .  S
Zr80         O93   2.398       .  S
Zr80         O86   2.405       .  S
Zr80         O87   2.366       .  S
Zr81         O83   2.433       .  S
Zr81        O105   2.437       .  S
Zr81        O107   2.414       .  S
Zr81         O85   2.404       .  S
Zr81         O88   2.407       .  S
Zr82        O108   2.435       .  S
Zr82        O925   2.434   1_455  S
Zr82        O900   2.438   1_455  S
Zr82         O85   2.371       .  S
Zr82         O86   2.405       .  S
O83         H120   0.990       .  S
O84        Zr898   2.438       .  S
O84         H115   0.990       .  S
O84         H129   0.990       .  S
O86         H112   0.963       .  S
O87         Zr97   2.396       .  S
O88         Zr97   2.391       .  S
O88         H113   0.966       .  S
C89        C1141   1.492   1_455  S
C90         C301   1.487       .  S
C91         C397   1.418       .  S
O92         H944   0.990   1_455  S
O93          C95   1.277       .  A
O94          C95   1.308       .  A
C95        C1132   1.515   1_455  S
O96         Zr97   2.442       .  S
O96         H125   0.990       .  S
Zr97        O100   2.436       .  S
Zr97        O101   2.439       .  S
Zr97        O102   2.398       .  S
O98         C103   1.287       .  A
O99         H116   0.988       .  S
O99         H131   0.988       .  S
O100        H117   0.990       .  S
O101        H121   0.990       .  S
O101        H130   0.989       .  S
O102        C103   1.267       .  A
C103        C289   1.477       .  S
O104        H123   0.990       .  S
O104        H943   0.990       .  S
O105        H119   0.990       .  S
O105        H126   0.990       .  S
O106        C110   1.295       .  A
O107        C110   1.284       .  A
O108        H934   0.990   1_455  S
O109       Zr898   2.434       .  S
O109        H122   0.990       .  S
C110        C385   1.486       .  S
H118        O924   0.990       .  S
H127        O920   0.990       .  S
H128        O908   0.990       .  S
Zr133       O542   2.439       .  S
Zr133       O135   2.507       .  S
Zr133       O136   2.480       .  S
Zr133       O547   2.537       .  S
Zr133       O141   2.414       .  S
Zr133       O142   2.392       .  S
Zr133       O551   2.449   1_556  S
Zr133       O552   2.400       .  S
O134       Zr541   2.439   1_545  S
O134        H190   0.990       .  S
O134        H198   0.988       .  S
O135        C155   1.290       .  A
O136        C157   1.294       .  A
O137       Zr147   2.372       .  S
O137        C156   1.271       .  A
O138       Zr146   2.415       .  S
O138        C157   1.284   1_554  A
O139       Zr541   2.537   1_545  S
O139        C156   1.303       .  A
O140       Zr148   2.392       .  S
O140        C155   1.267       .  A
O141       Zr146   2.405   1_556  S
O141       Zr148   2.382       .  S
O142       Zr148   2.404       .  S
O142       Zr555   2.364       .  S
O142        H177   0.966       .  S
O143       Zr163   2.403       .  S
O143       Zr541   2.449   1_544  S
O143       Zr554   2.425   1_545  S
O143        H180   0.964       .  S
O144       Zr147   2.382       .  S
O144       Zr163   2.417   1_556  S
O144       Zr541   2.400   1_545  S
Zr145       O170   2.443       .  S
Zr145       O164   2.438       .  S
Zr145       O172   2.405       .  S
Zr145       O160   2.398       .  S
Zr145       O151   2.431   1_554  S
Zr145       O152   2.421       .  S
Zr145       O153   2.379       .  S
Zr145       O562   2.410       .  S
Zr146       O165   2.434       .  S
Zr146       O158   2.435       .  S
Zr146       O159   2.466       .  S
Zr146       O152   2.410       .  S
Zr146       O153   2.405       .  S
Zr146       O551   2.425       .  S
Zr147       O149   2.428       .  S
Zr147       O579   2.437   1_545  S
Zr147       O581   2.404   1_546  S
Zr147       O154   2.389   1_556  S
Zr147       O550   2.364   1_545  S
Zr147       O559   2.369   1_545  S
Zr148       O174   2.443       .  S
Zr148       O175   2.437       .  S
Zr148       O150   2.439   1_556  S
Zr148       O151   2.376       .  S
Zr148       O152   2.383   1_556  S
O149        H186   0.990       .  S
O150        H181   0.989   1_554  S
O150        H195   0.990       .  S
O151       Zr555   2.369       .  S
O152        H178   0.965       .  S
O153       Zr571   2.369       .  S
O154       Zr163   2.360       .  S
O154       Zr553   2.410   1_545  S
O154        H179   0.964       .  S
C155        C304   1.509       .  S
C156        C349   1.496       .  S
C157        C265   1.494       .  S
O158        H194   0.990       .  S
O159        C161   1.279       .  A
O160        C161   1.265       .  A
C161        C292   1.495       .  S
O162       Zr163   2.439   1_556  S
O162        H191   0.990   1_556  S
Zr163       O166   2.436       .  S
Zr163       O167   2.439       .  S
Zr163       O168   2.480       .  S
Zr163       O561   2.369   1_545  S
O164        C577   1.288       .  A
O165        H182   0.990       .  S
O165        H197   0.990       .  S
O166        H183   0.990       .  S
O167        H187   0.990       .  S
O167        H196   0.990       .  S
O168        C169   1.293       .  A
C169        O572   1.288       .  A
C169        C337   1.520       .  S
O170        H189   0.990       .  S
O170        H193   0.990       .  S
O171       Zr555   2.437       .  S
O171        H185   0.990       .  S
O171        H192   0.989       .  S
O172        C176   1.261       .  A
O173       Zr555   2.404   1_554  S
O173        C176   1.264       .  A
O174        H184   0.989       .  S
O175        H188   0.990   1_556  S
C176        C277   1.442   1_554  S
Zr199       O200   2.446       .  S
Zr199       O201   2.455       .  S
Zr199       O202   2.420       .  S
Zr199       O205   2.416       .  S
Zr199       O207   2.424       .  S
Zr199       O208   2.390       .  S
Zr199       O209   2.488       .  S
Zr199       O210   2.394       .  S
O200        H256   0.990       .  S
O200        H264   0.991       .  S
O201        C221   1.288   1_545  A
O202       C1039   1.251       .  A
O203       Zr213   2.488       .  S
O203        C222   1.290       .  A
O204      Zr1028   2.374   1_556  S
O204        C223   1.261       .  A
O205        C222   1.275       .  A
O206       Zr214   2.429       .  S
O206        C629   1.281       .  A
O207       Zr212   2.393   1_556  S
O207       Zr622   2.352   1_545  S
O208       Zr213   2.403       .  S
O208       Zr622   2.396   1_545  S
O208        H243   0.966       .  S
O209       Zr212   2.423   1_556  S
O209       Zr229   2.394   1_556  S
O209        H246   0.969       .  S
O210       Zr213   2.367       .  S
O210       Zr229   2.360   1_556  S
Zr211       O644   2.437       .  S
Zr211       O230   2.518       .  S
Zr211       O238   2.466       .  S
Zr211       O226   2.566   1_545  S
Zr211       O217   2.434   1_554  S
Zr211       O218   2.404       .  S
Zr211       O219   2.373       .  S
Zr211       O220   2.414       .  S
Zr212       O231   2.436       .  S
Zr212       O632   2.422   1_545  S
Zr212       O225   2.401   1_545  S
Zr212      O1020   2.374   1_554  S
Zr212       O218   2.401       .  S
Zr212       O219   2.373       .  S
Zr213       O215   2.436       .  S
Zr213       O237   2.437       .  S
Zr213       O239   2.425       .  S
Zr213       O217   2.403       .  S
Zr213       O220   2.402   1_556  S
Zr214       O240   2.436       .  S
Zr214       O241   2.435       .  S
Zr214       O216   2.437       .  S
Zr214       O615   2.352       .  S
Zr214       O616   2.396       .  S
Zr214       O625   2.383       .  S
Zr214       O626   2.404   1_556  S
O215        H252   0.990       .  S
O216        H247   0.990       .  S
O216        H261   0.990       .  S
O217       Zr622   2.383   1_545  S
O218       Zr622   2.404   1_544  S
O218        H652   0.962   1_545  S
O219       Zr229   2.394       .  S
O220       Zr229   2.393       .  S
O220        H245   0.965       .  S
C221        O614   1.281       .  A
C221        C736   1.486       .  S
C222        C373   1.486       .  S
C223       O1018   1.251       .  A
C223        C280   1.424   1_655  S
O224       Zr620   2.422       .  S
O224        H260   0.990       .  S
O225        C227   1.279       .  A
O226        C227   1.310       .  A
C227        C721   1.520       .  S
O228       Zr229   2.440   1_556  S
O228        H257   0.990       .  S
Zr229       O232   2.440       .  S
Zr229       O233   2.439   1_554  S
Zr229       O234   2.365       .  S
O230        C235   1.299       .  A
O231        H248   0.989       .  S
O231        H263   0.986       .  S
O232        H249   0.989       .  S
O233        H253   0.990       .  S
O233        H262   0.989       .  S
O234        C235   1.263       .  A
C235        C364   1.496       .  S
O236       Zr619   2.437       .  S
O236        H255   0.990       .  S
O236        H259   0.990       .  S
O237        H251   0.990       .  S
O237        H258   0.990       .  S
O238        C242   1.290       .  A
O239        C242   1.280   1_556  A
O240        H250   0.990       .  S
O241        H254   0.990   1_556  S
C242        C268   1.498       .  S
H244        O626   0.962       .  S
C265        C266   1.410   1_556  A
C265        C678   1.413       .  A
C266        C675   1.403       .  A
C266        H271   1.085       .  S
C267        C268   1.416   1_565  A
C267        C674   1.403       .  A
C267        C682   1.444       .  S
C268        C269   1.410   1_554  A
C269        C270   1.400       .  A
C269        H272   1.084       .  S
C270        C673   1.413       .  A
C270        C273   1.442       .  S
C273        N275   1.157       .  T
C274        C675   1.444       .  S
C274        N276   1.157       .  T
C277        C278   1.406       .  A
C277        C690   1.409   1_556  A
C278        C687   1.384       .  A
C278        H283   1.084       .  S
C279        C280   1.390       .  A
C279        C686   1.384   1_545  A
C279        C286   1.443   1_545  S
C280        C281   1.391       .  A
C281        C282   1.388   1_556  A
C281        H284   1.080       .  S
C282        C685   1.409   1_544  A
C282        C285   1.437       .  S
C285        N287   1.155       .  T
C286        N696   1.157       .  T
N288        C694   1.157       .  T
C289        C290   1.409       .  A
C289        C294   1.407       .  A
C290        C291   1.411       .  A
C290        H295   1.084       .  S
C291        C292   1.416       .  A
C291        C298   1.443       .  S
C292        C293   1.409       .  A
C293        C294   1.391       .  A
C293        H296   1.085       .  S
C294        C297   1.446       .  S
C297        N299   1.157       .  T
C298        N300   1.157       .  T
C301        C302   1.410       .  A
C301        C306   1.402       .  A
C302        C303   1.413       .  A
C302        H307   1.085       .  S
C303        C304   1.414       .  A
C303        C310   1.442       .  S
C304        C305   1.416       .  A
C305        C306   1.403       .  A
C305        H308   1.081       .  S
C306        C309   1.444       .  S
C309        N311   1.157       .  T
C310        N312   1.157       .  T
C313        C635   1.520       .  S
C313        C314   1.403       .  A
C313        C318   1.431       .  A
C314        C315   1.417       .  A
C314        H319   1.084       .  S
C315        C316   1.427       .  A
C315        C322   1.443       .  S
C316        C911   1.515       .  S
C316        C317   1.400       .  A
C317        C318   1.415       .  A
C317       H1136   1.085       .  S
C318        C321   1.444       .  S
H320       C1133   1.085   1_455  S
C321        N323   1.157       .  T
C322        N324   1.157       .  T
C325        C905   1.492       .  S
C325        C326   1.411       .  A
C325       C1146   1.411       .  A
C326        C327   1.404       .  A
C326        H331   1.085       .  S
C327        C328   1.406       .  A
C327        C334   1.443       .  S
C328        C629   1.486       .  S
C328        C329   1.408       .  A
C329       C1146   1.408       .  A
C329        H332   1.085       .  S
C330       C1141   1.411       .  A
C330       C1145   1.408       .  A
C330        C333   1.443   1_655  S
C333        N335   1.157       .  T
C334        N744   1.157       .  T
N336        C742   1.157       .  T
C337        C338   1.413       .  A
C337        C342   1.422       .  A
C338        C339   1.409       .  A
C338        H343   1.084       .  S
C339        C340   1.418       .  A
C339        C346   1.444       .  S
C340        C341   1.409       .  A
C341        C342   1.414       .  A
C341        H344   1.085       .  S
C342        C345   1.443       .  S
C345        N347   1.157       .  T
C346        N348   1.157       .  T
C349        C350   1.417       .  A
C349        C354   1.409       .  A
C350        C351   1.424       .  A
C350        H355   1.084       .  S
C351        C352   1.414       .  A
C351        C358   1.441       .  S
C352        C353   1.409       .  A
C353        C354   1.402       .  A
C353        H356   1.075       .  S
C354        C357   1.446       .  S
C357        N767   1.157       .  T
C358        N360   1.157       .  T
N359        C765   1.157       .  T
C361        C362   1.388       .  A
C361        C366   1.417       .  A
C362        C363   1.398       .  A
C362        H367   1.085       .  S
C363        C364   1.433       .  A
C363        C370   1.444       .  S
C364        C365   1.399       .  A
C365        C366   1.401       .  A
C365        H368   1.084       .  S
C366        C369   1.442       .  S
C369        N371   1.157       .  T
C370        N372   1.157       .  T
C373        C374   1.412       .  A
C373        C378   1.401       .  A
C374        C375   1.413       .  A
C374        H379   1.083       .  S
C375        C376   1.412       .  A
C375        C382   1.442       .  S
C376        C377   1.415       .  A
C377        C378   1.400       .  A
C377        H380   1.079       .  S
C378        C381   1.444       .  S
C381        N383   1.157       .  T
C382        N384   1.157       .  T
C385        C386   1.406       .  A
C385        C390   1.416       .  A
C386        C387   1.405       .  A
C386        H391   1.085       .  S
C387        C388   1.415       .  A
C387       C1210   1.444   1_455  S
C388        C841   1.484       .  S
C388        C389   1.403       .  A
C389        C390   1.398       .  A
C389        H392   1.085       .  S
C390        C393   1.445       .  S
C393        N395   1.157       .  T
C394       C1203   1.444       .  S
C394        N396   1.157       .  T
C397        C398   1.395       .  A
C397        C810   1.400       .  A
C398        C807   1.383   1_455  A
C398        H403   1.082       .  S
C399        C400   1.402   1_655  A
C399        C806   1.383   1_645  A
C399       C1222   1.443       .  S
C400        C401   1.397       .  A
C401        C402   1.386       .  A
C401        H404   1.084       .  S
C402        C805   1.400   1_545  A
C402        C405   1.446       .  S
C405        N407   1.157       .  T
C406       C1215   1.443       .  S
C406        N408   1.156       .  T
Zr409       O410   2.439       .  S
Zr409      O1227   2.507   1_455  S
Zr409       O412   2.466       .  S
Zr409       O415   2.519       .  S
Zr409      O1233   2.412   1_455  S
Zr409      O1234   2.392   1_455  S
Zr409       O419   2.447       .  S
Zr409       O420   2.411       .  S
O410        H466   0.990       .  S
O410        H474   0.990       .  S
O411      Zr1225   2.507       .  S
O411        C431   1.287       .  A
O412       C1249   1.293       .  A
O413       Zr423   2.415       .  S
O413        C432   1.275       .  A
O414       Zr422   2.427       .  S
O414        C433   1.285       .  A
O415        C432   1.296       .  A
O416       Zr424   2.388       .  S
O416        C431   1.262       .  A
O417      Zr1225   2.412       .  S
O417       Zr422   2.409       .  S
O417       Zr424   2.374       .  S
O418      Zr1225   2.392       .  S
O418      Zr1239   2.382       .  S
O418       Zr424   2.394       .  S
O418        H453   0.965       .  S
O419      Zr1238   2.420   1_455  S
O419       Zr439   2.394       .  S
O419        H456   0.964       .  S
O420       Zr423   2.386       .  S
O420       Zr439   2.415       .  S
Zr421       O446   2.444       .  S
Zr421      O1256   2.462       .  S
Zr421       O448   2.394       .  S
Zr421       O436   2.410       .  S
Zr421       O427   2.436       .  S
Zr421       O428   2.402       .  S
Zr421      O1245   2.377       .  S
Zr421      O1246   2.400       .  S
Zr422      O1257   2.433       .  S
Zr422       O434   2.435       .  S
Zr422       O435   2.467       .  S
Zr422      O1235   2.420       .  S
Zr422       O428   2.408       .  S
Zr422      O1245   2.410       .  S
Zr423       O425   2.427       .  S
Zr423      O1263   2.434       .  S
Zr423       O449   2.419   1_455  S
Zr423      O1234   2.382   1_455  S
Zr423      O1243   2.393   1_455  S
Zr423       O430   2.399       .  S
Zr424       O450   2.446       .  S
Zr424       O451   2.437       .  S
Zr424       O426   2.447       .  S
Zr424       O427   2.369       .  S
Zr424       O428   2.366       .  S
O425        H462   0.989       .  S
O426        H457   0.989       .  S
O426        H471   0.990       .  S
O427      Zr1239   2.393       .  S
O428        H454   0.959       .  S
O429      Zr1237   2.377   1_455  S
O429      Zr1238   2.410   1_455  S
O429       Zr439   2.390       .  S
O430      Zr1237   2.400   1_455  S
O430       Zr439   2.368       .  S
O430        H455   0.964       .  S
C431        C784   1.507       .  S
C432        C760   1.514       .  S
C433       O1228   1.293       .  A
C433       C1612   1.484       .  S
O434        H470   0.990       .  S
O435        C437   1.289       .  A
O436        C437   1.278       .  A
C437        C769   1.471       .  S
O438       Zr439   2.441       .  S
O438        H467   0.990       .  S
Zr439       O442   2.436       .  S
Zr439       O443   2.440       .  S
Zr439       O444   2.454       .  S
O440      Zr1237   2.462   1_455  S
O440        C445   1.288       .  A
O441      Zr1238   2.433   1_455  S
O441       H1274   0.990   1_455  S
O441        H473   0.990       .  S
O442        H459   0.990       .  S
O443        H463   0.990       .  S
O443        H472   0.990       .  S
O444        C445   1.286       .  A
C445        C748   1.510       .  S
O446        H465   0.990       .  S
O446        H469   0.990       .  S
O447      Zr1239   2.434       .  S
O447       H1277   0.990       .  S
O447        H468   0.990       .  S
O448       C1268   1.257       .  A
O449        C452   1.269       .  A
O450        H460   0.988       .  S
O451        H464   0.990       .  S
C452       O1264   1.257       .  A
C452        C808   1.426   1_655  S
H458       O1257   0.990       .  S
H461       O1263   0.990       .  S
Zr475       O476   2.441       .  S
Zr475       O477   2.467       .  S
Zr475       O478   2.433       .  S
Zr475       O481   2.408       .  S
Zr475       O483   2.428       .  S
Zr475       O484   2.388       .  S
Zr475       O485   2.490       .  S
Zr475       O486   2.404       .  S
O476        H532   0.991       .  S
O476        H540   0.990       .  S
O477        C497   1.291       .  A
O478        C499   1.253       .  A
O479       Zr489   2.493       .  S
O479        C498   1.291       .  A
O480       Zr488   2.356       .  S
O480        C499   1.254       .  A
O481        C498   1.275       .  A
O482       Zr490   2.419       .  S
O482        C497   1.280       .  A
O483       Zr488   2.394       .  S
O483       Zr490   2.350       .  S
O484       Zr489   2.404       .  S
O484       Zr490   2.399       .  S
O484        H519   0.966       .  S
O485       Zr488   2.420       .  S
O485       Zr505   2.405       .  S
O485        H522   0.970       .  S
O486       Zr489   2.361       .  S
O486       Zr505   2.372       .  S
Zr487       O512   2.437       .  S
Zr487       O506   2.473       .  S
Zr487       O514   2.474       .  S
Zr487       O502   2.556       .  S
Zr487       O493   2.419       .  S
Zr487       O494   2.396       .  S
Zr487       O495   2.377       .  S
Zr487       O496   2.428       .  S
Zr488       O507   2.438       .  S
Zr488       O500   2.415       .  S
Zr488       O501   2.398       .  S
Zr488       O494   2.405       .  S
Zr488       O495   2.366       .  S
Zr489       O491   2.433       .  S
Zr489       O513   2.437       .  S
Zr489       O515   2.414       .  S
Zr489       O493   2.404       .  S
Zr489       O496   2.407       .  S
Zr490       O516   2.435       .  S
Zr490      O1333   2.434   1_455  S
Zr490      O1308   2.438   1_455  S
Zr490       O493   2.371       .  S
Zr490       O494   2.405       .  S
O491        H528   0.990       .  S
O492      Zr1306   2.438       .  S
O492        H523   0.990       .  S
O492        H537   0.990       .  S
O494        H520   0.963       .  S
O495       Zr505   2.396       .  S
O496       Zr505   2.391       .  S
O496        H521   0.966       .  S
C497       C1549   1.492   1_455  S
C498        C709   1.487       .  S
C499        C805   1.418       .  S
O500       H1352   0.990   1_455  S
O501        C503   1.277       .  A
O502        C503   1.308       .  A
C503       C1540   1.515   1_455  S
O504       Zr505   2.442       .  S
O504        H533   0.990       .  S
Zr505       O508   2.436       .  S
Zr505       O509   2.439       .  S
Zr505       O510   2.398       .  S
O506        C511   1.287       .  A
O507        H524   0.988       .  S
O507        H539   0.988       .  S
O508        H525   0.990       .  S
O509        H529   0.990       .  S
O509        H538   0.989       .  S
O510        C511   1.267       .  A
C511        C697   1.477       .  S
O512        H531   0.990       .  S
O512       H1351   0.990       .  S
O513        H527   0.990       .  S
O513        H534   0.990       .  S
O514        C518   1.295       .  A
O515        C518   1.284       .  A
O516       H1342   0.990   1_455  S
O517      Zr1306   2.434       .  S
O517        H530   0.990       .  S
C518        C793   1.486       .  S
H526       O1332   0.990       .  S
H535       O1328   0.990       .  S
H536       O1316   0.990       .  S
Zr541       O543   2.507       .  S
Zr541       O544   2.480   1_565  S
Zr541       O549   2.414       .  S
Zr541       O550   2.392       .  S
O542        H598   0.990       .  S
O542        H606   0.988       .  S
O543        C563   1.290       .  A
O544        C565   1.294   1_545  A
O545       Zr555   2.372       .  S
O545        C564   1.271       .  A
O546       Zr554   2.415       .  S
O546        C565   1.284   1_554  A
O547        C564   1.303       .  A
O548       Zr556   2.392       .  S
O548        C563   1.267       .  A
O549       Zr554   2.405   1_556  S
O549       Zr556   2.382       .  S
O550       Zr556   2.404       .  S
O550        H585   0.966       .  S
O551       Zr571   2.403       .  S
O551        H588   0.964       .  S
O552       Zr555   2.382       .  S
O552       Zr571   2.417   1_556  S
Zr553       O578   2.443       .  S
Zr553       O572   2.438   1_565  S
Zr553       O580   2.405       .  S
Zr553       O568   2.398       .  S
Zr553       O559   2.431   1_554  S
Zr553       O560   2.421       .  S
Zr553       O561   2.379       .  S
Zr554       O573   2.434       .  S
Zr554       O566   2.435       .  S
Zr554       O567   2.466       .  S
Zr554       O560   2.410       .  S
Zr554       O561   2.405       .  S
Zr555       O557   2.428       .  S
Zr555       O562   2.389   1_556  S
Zr556       O582   2.443       .  S
Zr556       O583   2.437       .  S
Zr556       O558   2.439   1_556  S
Zr556       O559   2.376       .  S
Zr556       O560   2.383   1_556  S
O557        H594   0.990       .  S
O558        H589   0.989   1_554  S
O558        H603   0.990       .  S
O560        H586   0.965       .  S
O562       Zr571   2.360       .  S
O562        H587   0.964       .  S
C563        C712   1.509       .  S
C564        C757   1.496       .  S
C565        C673   1.494   1_565  S
O566        H602   0.990       .  S
O567        C569   1.279       .  A
O568        C569   1.265       .  A
C569        C700   1.495       .  S
O570       Zr571   2.439   1_556  S
O570        H599   0.990   1_556  S
Zr571       O574   2.436       .  S
Zr571       O575   2.439       .  S
Zr571       O576   2.480       .  S
O573        H590   0.990       .  S
O573        H605   0.990   1_565  S
O574        H591   0.990       .  S
O575        H595   0.990       .  S
O575        H604   0.990       .  S
O576        C577   1.293       .  A
C577        C745   1.520       .  S
O578        H597   0.990       .  S
O578        H601   0.990       .  S
O579        H593   0.990       .  S
O579        H600   0.989       .  S
O580        C584   1.261       .  A
O581        C584   1.264       .  A
O582        H592   0.989       .  S
O583        H596   0.990   1_556  S
C584        C685   1.442   1_554  S
Zr607       O608   2.446       .  S
Zr607       O609   2.455       .  S
Zr607       O610   2.420       .  S
Zr607       O613   2.416       .  S
Zr607       O615   2.424       .  S
Zr607       O616   2.390       .  S
Zr607       O617   2.488       .  S
Zr607       O618   2.394       .  S
O608        H664   0.990       .  S
O608        H672   0.991       .  S
O609        C629   1.288       .  A
O610       C1447   1.251       .  A
O611       Zr621   2.488       .  S
O611        C630   1.290       .  A
O612      Zr1436   2.374   1_556  S
O612        C631   1.261       .  A
O613        C630   1.275       .  A
O614       Zr622   2.429       .  S
O615       Zr620   2.393   1_556  S
O616       Zr621   2.403       .  S
O616        H651   0.966       .  S
O617       Zr620   2.423   1_556  S
O617       Zr637   2.394   1_556  S
O617        H654   0.969       .  S
O618       Zr621   2.367       .  S
O618       Zr637   2.360   1_556  S
Zr619       O638   2.518       .  S
Zr619       O646   2.466       .  S
Zr619       O634   2.566       .  S
Zr619       O625   2.434   1_554  S
Zr619       O626   2.404       .  S
Zr619       O627   2.373       .  S
Zr619       O628   2.414       .  S
Zr620       O639   2.436       .  S
Zr620      O1428   2.374   1_554  S
Zr620       O633   2.401       .  S
Zr620       O626   2.401       .  S
Zr620       O627   2.373       .  S
Zr621       O623   2.436       .  S
Zr621       O645   2.437       .  S
Zr621       O647   2.425       .  S
Zr621       O625   2.403       .  S
Zr621       O628   2.402   1_556  S
Zr622       O648   2.436       .  S
Zr622       O649   2.435       .  S
Zr622       O624   2.437       .  S
O623        H660   0.990       .  S
O624        H655   0.990       .  S
O624        H669   0.990       .  S
O627       Zr637   2.394       .  S
O628       Zr637   2.393       .  S
O628        H653   0.965       .  S
C630        C781   1.486       .  S
C631       O1426   1.251       .  A
C631        C688   1.424   1_655  S
O632        H668   0.990       .  S
O633        C635   1.279       .  A
O634        C635   1.310       .  A
O636       Zr637   2.440   1_556  S
O636        H665   0.990       .  S
Zr637       O640   2.440       .  S
Zr637       O641   2.439   1_554  S
Zr637       O642   2.365       .  S
O638        C643   1.299       .  A
O639        H656   0.989       .  S
O639        H671   0.986       .  S
O640        H657   0.989       .  S
O641        H661   0.990       .  S
O641        H670   0.989       .  S
O642        C643   1.263       .  A
C643        C772   1.496       .  S
O644        H663   0.990   1_545  S
O644        H667   0.990       .  S
O645        H659   0.990       .  S
O645        H666   0.990       .  S
O646        C650   1.290       .  A
O647        C650   1.280   1_556  A
O648        H658   0.990       .  S
O649        H662   0.990   1_556  S
C650        C676   1.498       .  S
C673        C674   1.410   1_546  A
C674        H679   1.085       .  S
C675        C676   1.416       .  A
C676        C677   1.410   1_554  A
C677        C678   1.400       .  A
C677        H680   1.084       .  S
C678        C681   1.442       .  S
C681        N683   1.157       .  T
C682        N684   1.157       .  T
C685        C686   1.406       .  A
C686        H691   1.084       .  S
C687        C688   1.390       .  A
C687        C694   1.443       .  S
C688        C689   1.391       .  A
C689        C690   1.388   1_556  A
C689        H692   1.080       .  S
C690        C693   1.437       .  S
C693        N695   1.155       .  T
C697        C698   1.409       .  A
C697        C702   1.407       .  A
C698        C699   1.411       .  A
C698        H703   1.084       .  S
C699        C700   1.416       .  A
C699        C706   1.443       .  S
C700        C701   1.409       .  A
C701        C702   1.391       .  A
C701        H704   1.085       .  S
C702        C705   1.446       .  S
C705        N707   1.157       .  T
C706        N708   1.157       .  T
C709        C710   1.410       .  A
C709        C714   1.402       .  A
C710        C711   1.413       .  A
C710        H715   1.085       .  S
C711        C712   1.414       .  A
C711        C718   1.442       .  S
C712        C713   1.416       .  A
C713        C714   1.403       .  A
C713        H716   1.081       .  S
C714        C717   1.444       .  S
C717        N719   1.157       .  T
C718        N720   1.157       .  T
C721        C722   1.403       .  A
C721        C726   1.431       .  A
C722        C723   1.417       .  A
C722        H727   1.084       .  S
C723        C724   1.427       .  A
C723        C730   1.443       .  S
C724       C1319   1.515       .  S
C724        C725   1.400       .  A
C725        C726   1.415       .  A
C725       H1544   1.085       .  S
C726        C729   1.444       .  S
H728       C1541   1.085   1_455  S
C729        N731   1.157       .  T
C730        N732   1.157       .  T
C733       C1313   1.492       .  S
C733        C734   1.411       .  A
C733       C1554   1.411       .  A
C734        C735   1.404       .  A
C734        H739   1.085       .  S
C735        C736   1.406       .  A
C735        C742   1.443       .  S
C736        C737   1.408       .  A
C737       C1554   1.408       .  A
C737        H740   1.085       .  S
C738       C1549   1.411       .  A
C738       C1553   1.408       .  A
C738        C741   1.443   1_655  S
C741        N743   1.157       .  T
C745        C746   1.413       .  A
C745        C750   1.422       .  A
C746        C747   1.409       .  A
C746        H751   1.084       .  S
C747        C748   1.418       .  A
C747        C754   1.444       .  S
C748        C749   1.409       .  A
C749        C750   1.414       .  A
C749        H752   1.085       .  S
C750        C753   1.443       .  S
C753        N755   1.157       .  T
C754        N756   1.157       .  T
C757        C758   1.417       .  A
C757        C762   1.409       .  A
C758        C759   1.424       .  A
C758        H763   1.084       .  S
C759        C760   1.414       .  A
C759        C766   1.441       .  S
C760        C761   1.409       .  A
C761        C762   1.402       .  A
C761        H764   1.075       .  S
C762        C765   1.446       .  S
C766        N768   1.157       .  T
C769        C770   1.388       .  A
C769        C774   1.417       .  A
C770        C771   1.398       .  A
C770        H775   1.085       .  S
C771        C772   1.433       .  A
C771        C778   1.444       .  S
C772        C773   1.399       .  A
C773        C774   1.401       .  A
C773        H776   1.084       .  S
C774        C777   1.442       .  S
C777        N779   1.157       .  T
C778        N780   1.157       .  T
C781        C782   1.412       .  A
C781        C786   1.401       .  A
C782        C783   1.413       .  A
C782        H787   1.083       .  S
C783        C784   1.412       .  A
C783        C790   1.442       .  S
C784        C785   1.415       .  A
C785        C786   1.400       .  A
C785        H788   1.079       .  S
C786        C789   1.444       .  S
C789        N791   1.157       .  T
C790        N792   1.157       .  T
C793        C794   1.406       .  A
C793        C798   1.416       .  A
C794        C795   1.405       .  A
C794        H799   1.085       .  S
C795        C796   1.415       .  A
C795       C1618   1.444   1_455  S
C796       C1249   1.484       .  S
C796        C797   1.403       .  A
C797        C798   1.398       .  A
C797        H800   1.085       .  S
C798        C801   1.445       .  S
C801        N803   1.157       .  T
C802       C1611   1.444       .  S
C802        N804   1.157       .  T
C805        C806   1.395       .  A
C806        H811   1.082       .  S
C807        C808   1.402   1_655  A
C807       C1630   1.443       .  S
C808        C809   1.397       .  A
C809        C810   1.386       .  A
C809        H812   1.084       .  S
C810        C813   1.446       .  S
C813        N815   1.157       .  T
C814       C1623   1.443       .  S
C814        N816   1.156       .  T
Zr817       O818   2.439       .  S
Zr817       O820   2.466       .  S
Zr817       O823   2.519       .  S
Zr817       O827   2.447       .  S
Zr817       O828   2.411       .  S
O818        H874   0.990       .  S
O818        H882   0.990       .  S
O819        C839   1.287       .  A
O821       Zr831   2.415       .  S
O821        C840   1.275       .  A
O822       Zr830   2.427       .  S
O822        C841   1.285   1_655  A
O823        C840   1.296       .  A
O824       Zr832   2.388       .  S
O824        C839   1.262       .  A
O825       Zr830   2.409       .  S
O825       Zr832   2.374       .  S
O826       Zr832   2.394       .  S
O826        H861   0.965       .  S
O827       Zr847   2.394       .  S
O827        H864   0.964       .  S
O828       Zr831   2.386       .  S
O828       Zr847   2.415       .  S
Zr829       O854   2.444       .  S
Zr829       O856   2.394       .  S
Zr829       O844   2.410       .  S
Zr829       O835   2.436       .  S
Zr829       O836   2.402       .  S
Zr830       O842   2.435       .  S
Zr830       O843   2.467       .  S
Zr830       O836   2.408       .  S
Zr831       O833   2.427       .  S
Zr831       O857   2.419       .  S
Zr831       O838   2.399       .  S
Zr832       O858   2.446       .  S
Zr832       O859   2.437       .  S
Zr832       O834   2.447       .  S
Zr832       O835   2.369       .  S
Zr832       O836   2.366       .  S
O833        H870   0.989       .  S
O834        H865   0.989       .  S
O834        H879   0.990       .  S
O836        H862   0.959       .  S
O837       Zr847   2.390       .  S
O838       Zr847   2.368       .  S
O838        H863   0.964       .  S
C839       C1192   1.507       .  S
C840       C1168   1.514       .  S
O842        H878   0.990       .  S
O843        C845   1.289       .  A
O844        C845   1.278       .  A
C845       C1177   1.471       .  S
O846       Zr847   2.441       .  S
O846        H875   0.990       .  S
Zr847       O850   2.436       .  S
Zr847       O851   2.440       .  S
Zr847       O852   2.454       .  S
O848        C853   1.288       .  A
O849        H881   0.990       .  S
O850        H867   0.990       .  S
O851        H871   0.990       .  S
O851        H880   0.990       .  S
O852        C853   1.286       .  A
C853       C1156   1.510       .  S
O854        H873   0.990       .  S
O854        H877   0.990       .  S
O855        H876   0.990       .  S
O857        C860   1.269       .  A
O858        H868   0.988       .  S
O859        H872   0.990       .  S
C860       C1216   1.426       .  S
Zr883       O884   2.441       .  S
Zr883       O885   2.467       .  S
Zr883       O886   2.433       .  S
Zr883       O889   2.408       .  S
Zr883       O891   2.428       .  S
Zr883       O892   2.388       .  S
Zr883       O893   2.490       .  S
Zr883       O894   2.404       .  S
O884        H940   0.991       .  S
O884        H948   0.990       .  S
O885        C905   1.291       .  A
O886        C907   1.253       .  A
O887       Zr897   2.493       .  S
O887        C906   1.291       .  A
O888       Zr896   2.356       .  S
O888        C907   1.254       .  A
O889        C906   1.275       .  A
O890       Zr898   2.419       .  S
O890        C905   1.280       .  A
O891       Zr896   2.394       .  S
O891       Zr898   2.350       .  S
O892       Zr897   2.404       .  S
O892       Zr898   2.399       .  S
O892        H927   0.966       .  S
O893       Zr896   2.420       .  S
O893       Zr913   2.405       .  S
O893        H930   0.970       .  S
O894       Zr897   2.361       .  S
O894       Zr913   2.372       .  S
Zr895       O920   2.437       .  S
Zr895       O914   2.473       .  S
Zr895       O922   2.474       .  S
Zr895       O910   2.556       .  S
Zr895       O901   2.419       .  S
Zr895       O902   2.396       .  S
Zr895       O903   2.377       .  S
Zr895       O904   2.428       .  S
Zr896       O915   2.438       .  S
Zr896       O908   2.415       .  S
Zr896       O909   2.398       .  S
Zr896       O902   2.405       .  S
Zr896       O903   2.366       .  S
Zr897       O899   2.433       .  S
Zr897       O921   2.437       .  S
Zr897       O923   2.414       .  S
Zr897       O901   2.404       .  S
Zr897       O904   2.407       .  S
Zr898       O924   2.435       .  S
Zr898       O901   2.371       .  S
Zr898       O902   2.405       .  S
O899        H936   0.990       .  S
O900        H931   0.990       .  S
O900        H945   0.990       .  S
O902        H928   0.963       .  S
O903       Zr913   2.396       .  S
O904       Zr913   2.391       .  S
O904        H929   0.966       .  S
C906       C1117   1.487       .  S
C907       C1213   1.418       .  S
O909        C911   1.277       .  A
O910        C911   1.308       .  A
O912       Zr913   2.442       .  S
O912        H941   0.990       .  S
Zr913       O916   2.436       .  S
Zr913       O917   2.439       .  S
Zr913       O918   2.398       .  S
O914        C919   1.287       .  A
O915        H932   0.988       .  S
O915        H947   0.988       .  S
O916        H933   0.990       .  S
O917        H937   0.990       .  S
O917        H946   0.989       .  S
O918        C919   1.267       .  A
C919       C1105   1.477       .  S
O920        H939   0.990       .  S
O921        H935   0.990       .  S
O921        H942   0.990       .  S
O922        C926   1.295       .  A
O923        C926   1.284       .  A
O925        H938   0.990       .  S
C926       C1201   1.486       .  S
Zr949      O1358   2.439       .  S
Zr949       O951   2.507       .  S
Zr949       O952   2.480       .  S
Zr949      O1363   2.537       .  S
Zr949       O957   2.414       .  S
Zr949       O958   2.392       .  S
Zr949      O1367   2.449   1_556  S
Zr949      O1368   2.400       .  S
O950      Zr1357   2.439   1_545  S
O950       H1006   0.990       .  S
O950       H1014   0.988       .  S
O951        C971   1.290       .  A
O952        C973   1.294       .  A
O953       Zr963   2.372       .  S
O953        C972   1.271       .  A
O954       Zr962   2.415       .  S
O954        C973   1.284   1_554  A
O955      Zr1357   2.537   1_545  S
O955        C972   1.303       .  A
O956       Zr964   2.392       .  S
O956        C971   1.267       .  A
O957       Zr962   2.405   1_556  S
O957       Zr964   2.382       .  S
O958      Zr1371   2.364       .  S
O958       Zr964   2.404       .  S
O958        H993   0.966       .  S
O959      Zr1357   2.449   1_544  S
O959      Zr1370   2.425   1_545  S
O959       Zr979   2.403       .  S
O959        H996   0.964       .  S
O960      Zr1357   2.400   1_545  S
O960       Zr963   2.382       .  S
O960       Zr979   2.417   1_556  S
Zr961       O986   2.443       .  S
Zr961       O980   2.438       .  S
Zr961       O988   2.405       .  S
Zr961       O976   2.398       .  S
Zr961       O967   2.431   1_554  S
Zr961       O968   2.421       .  S
Zr961       O969   2.379       .  S
Zr961      O1378   2.410       .  S
Zr962       O981   2.434       .  S
Zr962       O974   2.435       .  S
Zr962       O975   2.466       .  S
Zr962      O1367   2.425       .  S
Zr962       O968   2.410       .  S
Zr962       O969   2.405       .  S
Zr963       O965   2.428       .  S
Zr963      O1395   2.437   1_545  S
Zr963      O1397   2.404   1_546  S
Zr963      O1366   2.364   1_545  S
Zr963      O1375   2.369   1_545  S
Zr963       O970   2.389   1_556  S
Zr964       O990   2.443       .  S
Zr964       O991   2.437       .  S
Zr964       O966   2.439   1_556  S
Zr964       O967   2.376       .  S
Zr964       O968   2.383   1_556  S
O965       H1002   0.990       .  S
O966        H997   0.989   1_554  S
O966       H1011   0.990       .  S
O967      Zr1371   2.369       .  S
O968        H994   0.965       .  S
O969      Zr1387   2.369       .  S
O970      Zr1369   2.410   1_545  S
O970       Zr979   2.360       .  S
O970        H995   0.964       .  S
C971       C1120   1.509       .  S
C972       C1165   1.496       .  S
C973       C1081   1.494       .  S
O974       H1010   0.990       .  S
O975        C977   1.279       .  A
O976        C977   1.265       .  A
C977       C1108   1.495       .  S
O978       Zr979   2.439   1_556  S
O978       H1007   0.990   1_556  S
Zr979       O982   2.436       .  S
Zr979       O983   2.439       .  S
Zr979       O984   2.480       .  S
Zr979      O1377   2.369   1_545  S
O980       C1393   1.288       .  A
O981        H998   0.990       .  S
O981       H1013   0.990       .  S
O982        H999   0.990       .  S
O983       H1003   0.990       .  S
O983       H1012   0.990       .  S
O984        C985   1.293       .  A
C985       O1388   1.288       .  A
C985       C1153   1.520       .  S
O986       H1005   0.990       .  S
O986       H1009   0.990       .  S
O987      Zr1371   2.437       .  S
O987       H1001   0.990       .  S
O987       H1008   0.989       .  S
O988        C992   1.261       .  A
O989      Zr1371   2.404   1_554  S
O989        C992   1.264       .  A
O990       H1000   0.989       .  S
O991       H1004   0.990   1_556  S
C992       C1093   1.442   1_554  S
Zr1015     O1016   2.446       .  S
Zr1015     O1017   2.455       .  S
Zr1015     O1018   2.420       .  S
Zr1015     O1021   2.416       .  S
Zr1015     O1023   2.424       .  S
Zr1015     O1024   2.390       .  S
Zr1015     O1025   2.488       .  S
Zr1015     O1026   2.394       .  S
O1016      H1072   0.990       .  S
O1016      H1080   0.991       .  S
O1017      C1037   1.288   1_545  A
O1019     Zr1029   2.488       .  S
O1019      C1038   1.290       .  A
O1020      C1039   1.261       .  A
O1021      C1038   1.275       .  A
O1022     Zr1030   2.429       .  S
O1022      C1445   1.281       .  A
O1023     Zr1028   2.393   1_556  S
O1023     Zr1438   2.352   1_545  S
O1024     Zr1029   2.403       .  S
O1024     Zr1438   2.396   1_545  S
O1024      H1059   0.966       .  S
O1025     Zr1028   2.423   1_556  S
O1025     Zr1045   2.394   1_556  S
O1025      H1062   0.969       .  S
O1026     Zr1029   2.367       .  S
O1026     Zr1045   2.360   1_556  S
Zr1027     O1460   2.437       .  S
Zr1027     O1046   2.518       .  S
Zr1027     O1054   2.466       .  S
Zr1027     O1042   2.566   1_545  S
Zr1027     O1033   2.434   1_554  S
Zr1027     O1034   2.404       .  S
Zr1027     O1035   2.373       .  S
Zr1027     O1036   2.414       .  S
Zr1028     O1047   2.436       .  S
Zr1028     O1448   2.422   1_545  S
Zr1028     O1041   2.401   1_545  S
Zr1028     O1034   2.401       .  S
Zr1028     O1035   2.373       .  S
Zr1029     O1031   2.436       .  S
Zr1029     O1053   2.437       .  S
Zr1029     O1055   2.425       .  S
Zr1029     O1033   2.403       .  S
Zr1029     O1036   2.402   1_556  S
Zr1030     O1056   2.436       .  S
Zr1030     O1057   2.435       .  S
Zr1030     O1032   2.437       .  S
Zr1030     O1431   2.352       .  S
Zr1030     O1432   2.396       .  S
Zr1030     O1441   2.383       .  S
Zr1030     O1442   2.404   1_556  S
O1031      H1068   0.990       .  S
O1032      H1063   0.990       .  S
O1032      H1077   0.990       .  S
O1033     Zr1438   2.383   1_545  S
O1034     Zr1438   2.404   1_544  S
O1034      H1468   0.962   1_545  S
O1035     Zr1045   2.394       .  S
O1036     Zr1045   2.393       .  S
O1036      H1061   0.965       .  S
C1037      O1430   1.281       .  A
C1037      C1552   1.486       .  S
C1038      C1189   1.486       .  S
C1039      C1096   1.424       .  S
O1040     Zr1436   2.422       .  S
O1040      H1076   0.990       .  S
O1041      C1043   1.279       .  A
O1042      C1043   1.310       .  A
C1043      C1537   1.520       .  S
O1044     Zr1045   2.440   1_556  S
O1044      H1073   0.990       .  S
Zr1045     O1048   2.440       .  S
Zr1045     O1049   2.439   1_554  S
Zr1045     O1050   2.365       .  S
O1046      C1051   1.299       .  A
O1047      H1064   0.989   1_655  S
O1047      H1079   0.986       .  S
O1048      H1065   0.989       .  S
O1049      H1069   0.990       .  S
O1049      H1078   0.989       .  S
O1050      C1051   1.263       .  A
C1051      C1180   1.496       .  S
O1052     Zr1435   2.437       .  S
O1052      H1071   0.990       .  S
O1052      H1075   0.990       .  S
O1053      H1067   0.990       .  S
O1053      H1074   0.990       .  S
O1054      C1058   1.290       .  A
O1055      C1058   1.280   1_556  A
O1056      H1066   0.990       .  S
O1057      H1070   0.990   1_556  S
C1058      C1084   1.498       .  S
H1060      O1442   0.962       .  S
C1081      C1082   1.410   1_556  A
C1081      C1494   1.413       .  A
C1082      C1491   1.403       .  A
C1082      H1087   1.085       .  S
C1083      C1490   1.403       .  A
C1083      C1084   1.416   1_565  A
C1083      C1498   1.444       .  S
C1084      C1085   1.410   1_554  A
C1085      C1086   1.400       .  A
C1085      H1088   1.084       .  S
C1086      C1489   1.413       .  A
C1086      C1089   1.442       .  S
C1089      N1091   1.157       .  T
C1090      C1491   1.444       .  S
C1090      N1092   1.157       .  T
C1093      C1094   1.406       .  A
C1093      C1506   1.409   1_556  A
C1094      C1503   1.384       .  A
C1094      H1099   1.084       .  S
C1095      C1502   1.384   1_545  A
C1095      C1096   1.390       .  A
C1095      C1102   1.443   1_545  S
C1096      C1097   1.391       .  A
C1097      C1098   1.388   1_556  A
C1097      H1100   1.080       .  S
C1098      C1501   1.409   1_544  A
C1098      C1101   1.437       .  S
C1101      N1103   1.155       .  T
C1102      N1512   1.157       .  T
N1104      C1510   1.157       .  T
C1105      C1106   1.409       .  A
C1105      C1110   1.407       .  A
C1106      C1107   1.411       .  A
C1106      H1111   1.084       .  S
C1107      C1108   1.416       .  A
C1107      C1114   1.443       .  S
C1108      C1109   1.409       .  A
C1109      C1110   1.391       .  A
C1109      H1112   1.085       .  S
C1110      C1113   1.446       .  S
C1113      N1115   1.157       .  T
C1114      N1116   1.157       .  T
C1117      C1118   1.410       .  A
C1117      C1122   1.402       .  A
C1118      C1119   1.413       .  A
C1118      H1123   1.085       .  S
C1119      C1120   1.414       .  A
C1119      C1126   1.442       .  S
C1120      C1121   1.416       .  A
C1121      C1122   1.403       .  A
C1121      H1124   1.081       .  S
C1122      C1125   1.444       .  S
C1125      N1127   1.157       .  T
C1126      N1128   1.157       .  T
C1129      C1451   1.520       .  S
C1129      C1130   1.403       .  A
C1129      C1134   1.431       .  A
C1130      C1131   1.417       .  A
C1130      H1135   1.084       .  S
C1131      C1132   1.427       .  A
C1131      C1138   1.443       .  S
C1132      C1133   1.400       .  A
C1133      C1134   1.415       .  A
C1134      C1137   1.444       .  S
C1137      N1139   1.157       .  T
C1138      N1140   1.157       .  T
C1141      C1142   1.411       .  A
C1142      C1143   1.404       .  A
C1142      H1147   1.085       .  S
C1143      C1144   1.406       .  A
C1143      C1150   1.443       .  S
C1144      C1445   1.486       .  S
C1144      C1145   1.408       .  A
C1145      H1148   1.085       .  S
C1146      C1149   1.443       .  S
C1149      N1151   1.157       .  T
C1150      N1560   1.157       .  T
N1152      C1558   1.157       .  T
C1153      C1154   1.413       .  A
C1153      C1158   1.422       .  A
C1154      C1155   1.409       .  A
C1154      H1159   1.084       .  S
C1155      C1156   1.418       .  A
C1155      C1162   1.444       .  S
C1156      C1157   1.409       .  A
C1157      C1158   1.414       .  A
C1157      H1160   1.085       .  S
C1158      C1161   1.443       .  S
C1161      N1163   1.157       .  T
C1162      N1164   1.157       .  T
C1165      C1166   1.417       .  A
C1165      C1170   1.409       .  A
C1166      C1167   1.424       .  A
C1166      H1171   1.084       .  S
C1167      C1168   1.414       .  A
C1167      C1174   1.441       .  S
C1168      C1169   1.409       .  A
C1169      C1170   1.402       .  A
C1169      H1172   1.075       .  S
C1170      C1173   1.446       .  S
C1173      N1583   1.157       .  T
C1174      N1176   1.157       .  T
N1175      C1581   1.157       .  T
C1177      C1178   1.388       .  A
C1177      C1182   1.417       .  A
C1178      C1179   1.398       .  A
C1178      H1183   1.085       .  S
C1179      C1180   1.433       .  A
C1179      C1186   1.444       .  S
C1180      C1181   1.399       .  A
C1181      C1182   1.401       .  A
C1181      H1184   1.084       .  S
C1182      C1185   1.442       .  S
C1185      N1187   1.157       .  T
C1186      N1188   1.157       .  T
C1189      C1190   1.412       .  A
C1189      C1194   1.401       .  A
C1190      C1191   1.413       .  A
C1190      H1195   1.083       .  S
C1191      C1192   1.412       .  A
C1191      C1198   1.442       .  S
C1192      C1193   1.415       .  A
C1193      C1194   1.400       .  A
C1193      H1196   1.079       .  S
C1194      C1197   1.444       .  S
C1197      N1199   1.157       .  T
C1198      N1200   1.157       .  T
C1201      C1202   1.406       .  A
C1201      C1206   1.416       .  A
C1202      C1203   1.405       .  A
C1202      H1207   1.085       .  S
C1203      C1204   1.415       .  A
C1204      C1205   1.403       .  A
C1205      C1206   1.398       .  A
C1205      H1208   1.085       .  S
C1206      C1209   1.445       .  S
C1209      N1211   1.157       .  T
C1210      N1212   1.157       .  T
C1213      C1214   1.395       .  A
C1213      C1626   1.400       .  A
C1214      C1623   1.383       .  A
C1214      H1219   1.082       .  S
C1215      C1622   1.383   1_545  A
C1215      C1216   1.402       .  A
C1216      C1217   1.397       .  A
C1217      C1218   1.386       .  A
C1217      H1220   1.084       .  S
C1218      C1621   1.400   1_545  A
C1218      C1221   1.446       .  S
C1221      N1223   1.157       .  T
C1222      N1224   1.156       .  T
Zr1225     O1226   2.439       .  S
Zr1225     O1228   2.466       .  S
Zr1225     O1231   2.519       .  S
Zr1225     O1235   2.447       .  S
Zr1225     O1236   2.411       .  S
O1226      H1282   0.990       .  S
O1226      H1290   0.990       .  S
O1227      C1247   1.287       .  A
O1229     Zr1239   2.415       .  S
O1229      C1248   1.275       .  A
O1230     Zr1238   2.427       .  S
O1230      C1249   1.285   1_655  A
O1231      C1248   1.296       .  A
O1232     Zr1240   2.388       .  S
O1232      C1247   1.262       .  A
O1233     Zr1238   2.409       .  S
O1233     Zr1240   2.374       .  S
O1234     Zr1240   2.394       .  S
O1234      H1269   0.965       .  S
O1235     Zr1255   2.394       .  S
O1235      H1272   0.964       .  S
O1236     Zr1239   2.386       .  S
O1236     Zr1255   2.415       .  S
Zr1237     O1262   2.444       .  S
Zr1237     O1264   2.394       .  S
Zr1237     O1252   2.410       .  S
Zr1237     O1243   2.436       .  S
Zr1237     O1244   2.402       .  S
Zr1238     O1250   2.435       .  S
Zr1238     O1251   2.467       .  S
Zr1238     O1244   2.408       .  S
Zr1239     O1241   2.427       .  S
Zr1239     O1265   2.419       .  S
Zr1239     O1246   2.399       .  S
Zr1240     O1266   2.446       .  S
Zr1240     O1267   2.437       .  S
Zr1240     O1242   2.447       .  S
Zr1240     O1243   2.369       .  S
Zr1240     O1244   2.366       .  S
O1241      H1278   0.989       .  S
O1242      H1273   0.989       .  S
O1242      H1287   0.990       .  S
O1244      H1270   0.959       .  S
O1245     Zr1255   2.390       .  S
O1246     Zr1255   2.368       .  S
O1246      H1271   0.964       .  S
C1247      C1600   1.507       .  S
C1248      C1576   1.514       .  S
O1250      H1286   0.990       .  S
O1251      C1253   1.289       .  A
O1252      C1253   1.278       .  A
C1253      C1585   1.471       .  S
O1254     Zr1255   2.441       .  S
O1254      H1283   0.990       .  S
Zr1255     O1258   2.436       .  S
Zr1255     O1259   2.440       .  S
Zr1255     O1260   2.454       .  S
O1256      C1261   1.288       .  A
O1257      H1289   0.990       .  S
O1258      H1275   0.990       .  S
O1259      H1279   0.990       .  S
O1259      H1288   0.990       .  S
O1260      C1261   1.286       .  A
C1261      C1564   1.510       .  S
O1262      H1281   0.990       .  S
O1262      H1285   0.990       .  S
O1263      H1284   0.990       .  S
O1265      C1268   1.269       .  A
O1266      H1276   0.988       .  S
O1267      H1280   0.990       .  S
C1268      C1624   1.426       .  S
Zr1291     O1292   2.441       .  S
Zr1291     O1293   2.467       .  S
Zr1291     O1294   2.433       .  S
Zr1291     O1297   2.408       .  S
Zr1291     O1299   2.428       .  S
Zr1291     O1300   2.388       .  S
Zr1291     O1301   2.490       .  S
Zr1291     O1302   2.404       .  S
O1292      H1348   0.991       .  S
O1292      H1356   0.990       .  S
O1293      C1313   1.291       .  A
O1294      C1315   1.253       .  A
O1295     Zr1305   2.493       .  S
O1295      C1314   1.291       .  A
O1296     Zr1304   2.356       .  S
O1296      C1315   1.254       .  A
O1297      C1314   1.275       .  A
O1298     Zr1306   2.419       .  S
O1298      C1313   1.280       .  A
O1299     Zr1304   2.394       .  S
O1299     Zr1306   2.350       .  S
O1300     Zr1305   2.404       .  S
O1300     Zr1306   2.399       .  S
O1300      H1335   0.966       .  S
O1301     Zr1304   2.420       .  S
O1301     Zr1321   2.405       .  S
O1301      H1338   0.970       .  S
O1302     Zr1305   2.361       .  S
O1302     Zr1321   2.372       .  S
Zr1303     O1328   2.437       .  S
Zr1303     O1322   2.473       .  S
Zr1303     O1330   2.474       .  S
Zr1303     O1318   2.556       .  S
Zr1303     O1309   2.419       .  S
Zr1303     O1310   2.396       .  S
Zr1303     O1311   2.377       .  S
Zr1303     O1312   2.428       .  S
Zr1304     O1323   2.438       .  S
Zr1304     O1316   2.415       .  S
Zr1304     O1317   2.398       .  S
Zr1304     O1310   2.405       .  S
Zr1304     O1311   2.366       .  S
Zr1305     O1307   2.433       .  S
Zr1305     O1329   2.437       .  S
Zr1305     O1331   2.414       .  S
Zr1305     O1309   2.404       .  S
Zr1305     O1312   2.407       .  S
Zr1306     O1332   2.435       .  S
Zr1306     O1309   2.371       .  S
Zr1306     O1310   2.405       .  S
O1307      H1344   0.990       .  S
O1308      H1339   0.990       .  S
O1308      H1353   0.990       .  S
O1310      H1336   0.963       .  S
O1311     Zr1321   2.396       .  S
O1312     Zr1321   2.391       .  S
O1312      H1337   0.966       .  S
C1314      C1525   1.487       .  S
C1315      C1621   1.418       .  S
O1317      C1319   1.277       .  A
O1318      C1319   1.308       .  A
O1320     Zr1321   2.442       .  S
O1320      H1349   0.990       .  S
Zr1321     O1324   2.436       .  S
Zr1321     O1325   2.439       .  S
Zr1321     O1326   2.398       .  S
O1322      C1327   1.287       .  A
O1323      H1340   0.988       .  S
O1323      H1355   0.988       .  S
O1324      H1341   0.990       .  S
O1325      H1345   0.990       .  S
O1325      H1354   0.989       .  S
O1326      C1327   1.267       .  A
C1327      C1513   1.477       .  S
O1328      H1347   0.990       .  S
O1329      H1343   0.990       .  S
O1329      H1350   0.990       .  S
O1330      C1334   1.295       .  A
O1331      C1334   1.284       .  A
O1333      H1346   0.990       .  S
C1334      C1609   1.486       .  S
Zr1357     O1359   2.507       .  S
Zr1357     O1360   2.480   1_565  S
Zr1357     O1365   2.414       .  S
Zr1357     O1366   2.392       .  S
O1358      H1414   0.990       .  S
O1358      H1422   0.988       .  S
O1359      C1379   1.290       .  A
O1360      C1381   1.294   1_545  A
O1361     Zr1371   2.372       .  S
O1361      C1380   1.271       .  A
O1362     Zr1370   2.415       .  S
O1362      C1381   1.284   1_554  A
O1363      C1380   1.303       .  A
O1364     Zr1372   2.392       .  S
O1364      C1379   1.267       .  A
O1365     Zr1370   2.405   1_556  S
O1365     Zr1372   2.382       .  S
O1366     Zr1372   2.404       .  S
O1366      H1401   0.966       .  S
O1367     Zr1387   2.403       .  S
O1367      H1404   0.964       .  S
O1368     Zr1371   2.382       .  S
O1368     Zr1387   2.417   1_556  S
Zr1369     O1394   2.443       .  S
Zr1369     O1388   2.438   1_565  S
Zr1369     O1396   2.405       .  S
Zr1369     O1384   2.398       .  S
Zr1369     O1375   2.431   1_554  S
Zr1369     O1376   2.421       .  S
Zr1369     O1377   2.379       .  S
Zr1370     O1389   2.434       .  S
Zr1370     O1382   2.435       .  S
Zr1370     O1383   2.466       .  S
Zr1370     O1376   2.410       .  S
Zr1370     O1377   2.405       .  S
Zr1371     O1373   2.428       .  S
Zr1371     O1378   2.389   1_556  S
Zr1372     O1398   2.443       .  S
Zr1372     O1399   2.437       .  S
Zr1372     O1374   2.439   1_556  S
Zr1372     O1375   2.376       .  S
Zr1372     O1376   2.383   1_556  S
O1373      H1410   0.990       .  S
O1374      H1405   0.989   1_554  S
O1374      H1419   0.990       .  S
O1376      H1402   0.965       .  S
O1378     Zr1387   2.360       .  S
O1378      H1403   0.964       .  S
C1379      C1528   1.509       .  S
C1380      C1573   1.496       .  S
C1381      C1489   1.494   1_565  S
O1382      H1418   0.990       .  S
O1383      C1385   1.279       .  A
O1384      C1385   1.265       .  A
C1385      C1516   1.495       .  S
O1386     Zr1387   2.439   1_556  S
O1386      H1415   0.990   1_556  S
Zr1387     O1390   2.436       .  S
Zr1387     O1391   2.439       .  S
Zr1387     O1392   2.480       .  S
O1389      H1406   0.990       .  S
O1389      H1421   0.990   1_565  S
O1390      H1407   0.990       .  S
O1391      H1411   0.990       .  S
O1391      H1420   0.990       .  S
O1392      C1393   1.293       .  A
C1393      C1561   1.520       .  S
O1394      H1413   0.990       .  S
O1394      H1417   0.990       .  S
O1395      H1409   0.990       .  S
O1395      H1416   0.989       .  S
O1396      C1400   1.261       .  A
O1397      C1400   1.264       .  A
O1398      H1408   0.989       .  S
O1399      H1412   0.990   1_556  S
C1400      C1501   1.442   1_554  S
Zr1423     O1424   2.446       .  S
Zr1423     O1425   2.455       .  S
Zr1423     O1426   2.420       .  S
Zr1423     O1429   2.416       .  S
Zr1423     O1431   2.424       .  S
Zr1423     O1432   2.390       .  S
Zr1423     O1433   2.488       .  S
Zr1423     O1434   2.394       .  S
O1424      H1480   0.990       .  S
O1424      H1488   0.991       .  S
O1425      C1445   1.288       .  A
O1427     Zr1437   2.488       .  S
O1427      C1446   1.290       .  A
O1428      C1447   1.261       .  A
O1429      C1446   1.275       .  A
O1430     Zr1438   2.429       .  S
O1431     Zr1436   2.393   1_556  S
O1432     Zr1437   2.403       .  S
O1432      H1467   0.966       .  S
O1433     Zr1436   2.423   1_556  S
O1433     Zr1453   2.394   1_556  S
O1433      H1470   0.969       .  S
O1434     Zr1437   2.367       .  S
O1434     Zr1453   2.360   1_556  S
Zr1435     O1454   2.518       .  S
Zr1435     O1462   2.466       .  S
Zr1435     O1450   2.566       .  S
Zr1435     O1441   2.434   1_554  S
Zr1435     O1442   2.404       .  S
Zr1435     O1443   2.373       .  S
Zr1435     O1444   2.414       .  S
Zr1436     O1455   2.436       .  S
Zr1436     O1449   2.401       .  S
Zr1436     O1442   2.401       .  S
Zr1436     O1443   2.373       .  S
Zr1437     O1439   2.436       .  S
Zr1437     O1461   2.437       .  S
Zr1437     O1463   2.425       .  S
Zr1437     O1441   2.403       .  S
Zr1437     O1444   2.402   1_556  S
Zr1438     O1464   2.436       .  S
Zr1438     O1465   2.435       .  S
Zr1438     O1440   2.437       .  S
O1439      H1476   0.990       .  S
O1440      H1471   0.990       .  S
O1440      H1485   0.990       .  S
O1443     Zr1453   2.394       .  S
O1444     Zr1453   2.393       .  S
O1444      H1469   0.965       .  S
C1446      C1597   1.486       .  S
C1447      C1504   1.424       .  S
O1448      H1484   0.990       .  S
O1449      C1451   1.279       .  A
O1450      C1451   1.310       .  A
O1452     Zr1453   2.440   1_556  S
O1452      H1481   0.990       .  S
Zr1453     O1456   2.440       .  S
Zr1453     O1457   2.439   1_554  S
Zr1453     O1458   2.365       .  S
O1454      C1459   1.299       .  A
O1455      H1472   0.989   1_655  S
O1455      H1487   0.986       .  S
O1456      H1473   0.989       .  S
O1457      H1477   0.990       .  S
O1457      H1486   0.989       .  S
O1458      C1459   1.263       .  A
C1459      C1588   1.496       .  S
O1460      H1479   0.990   1_545  S
O1460      H1483   0.990       .  S
O1461      H1475   0.990       .  S
O1461      H1482   0.990       .  S
O1462      C1466   1.290       .  A
O1463      C1466   1.280   1_556  A
O1464      H1474   0.990       .  S
O1465      H1478   0.990   1_556  S
C1466      C1492   1.498       .  S
C1489      C1490   1.410   1_546  A
C1490      H1495   1.085       .  S
C1491      C1492   1.416       .  A
C1492      C1493   1.410   1_554  A
C1493      C1494   1.400       .  A
C1493      H1496   1.084       .  S
C1494      C1497   1.442       .  S
C1497      N1499   1.157       .  T
C1498      N1500   1.157       .  T
C1501      C1502   1.406       .  A
C1502      H1507   1.084       .  S
C1503      C1504   1.390       .  A
C1503      C1510   1.443       .  S
C1504      C1505   1.391       .  A
C1505      C1506   1.388   1_556  A
C1505      H1508   1.080       .  S
C1506      C1509   1.437       .  S
C1509      N1511   1.155       .  T
C1513      C1514   1.409       .  A
C1513      C1518   1.407       .  A
C1514      C1515   1.411       .  A
C1514      H1519   1.084       .  S
C1515      C1516   1.416       .  A
C1515      C1522   1.443       .  S
C1516      C1517   1.409       .  A
C1517      C1518   1.391       .  A
C1517      H1520   1.085       .  S
C1518      C1521   1.446       .  S
C1521      N1523   1.157       .  T
C1522      N1524   1.157       .  T
C1525      C1526   1.410       .  A
C1525      C1530   1.402       .  A
C1526      C1527   1.413       .  A
C1526      H1531   1.085       .  S
C1527      C1528   1.414       .  A
C1527      C1534   1.442       .  S
C1528      C1529   1.416       .  A
C1529      C1530   1.403       .  A
C1529      H1532   1.081       .  S
C1530      C1533   1.444       .  S
C1533      N1535   1.157       .  T
C1534      N1536   1.157       .  T
C1537      C1538   1.403       .  A
C1537      C1542   1.431       .  A
C1538      C1539   1.417       .  A
C1538      H1543   1.084       .  S
C1539      C1540   1.427       .  A
C1539      C1546   1.443       .  S
C1540      C1541   1.400       .  A
C1541      C1542   1.415       .  A
C1542      C1545   1.444       .  S
C1545      N1547   1.157       .  T
C1546      N1548   1.157       .  T
C1549      C1550   1.411       .  A
C1550      C1551   1.404       .  A
C1550      H1555   1.085       .  S
C1551      C1552   1.406       .  A
C1551      C1558   1.443       .  S
C1552      C1553   1.408       .  A
C1553      H1556   1.085       .  S
C1554      C1557   1.443       .  S
C1557      N1559   1.157       .  T
C1561      C1562   1.413       .  A
C1561      C1566   1.422       .  A
C1562      C1563   1.409       .  A
C1562      H1567   1.084       .  S
C1563      C1564   1.418       .  A
C1563      C1570   1.444       .  S
C1564      C1565   1.409       .  A
C1565      C1566   1.414       .  A
C1565      H1568   1.085       .  S
C1566      C1569   1.443       .  S
C1569      N1571   1.157       .  T
C1570      N1572   1.157       .  T
C1573      C1574   1.417       .  A
C1573      C1578   1.409       .  A
C1574      C1575   1.424       .  A
C1574      H1579   1.084       .  S
C1575      C1576   1.414       .  A
C1575      C1582   1.441       .  S
C1576      C1577   1.409       .  A
C1577      C1578   1.402       .  A
C1577      H1580   1.075       .  S
C1578      C1581   1.446       .  S
C1582      N1584   1.157       .  T
C1585      C1586   1.388       .  A
C1585      C1590   1.417       .  A
C1586      C1587   1.398       .  A
C1586      H1591   1.085       .  S
C1587      C1588   1.433       .  A
C1587      C1594   1.444       .  S
C1588      C1589   1.399       .  A
C1589      C1590   1.401       .  A
C1589      H1592   1.084       .  S
C1590      C1593   1.442       .  S
C1593      N1595   1.157       .  T
C1594      N1596   1.157       .  T
C1597      C1598   1.412       .  A
C1597      C1602   1.401       .  A
C1598      C1599   1.413       .  A
C1598      H1603   1.083       .  S
C1599      C1600   1.412       .  A
C1599      C1606   1.442       .  S
C1600      C1601   1.415       .  A
C1601      C1602   1.400       .  A
C1601      H1604   1.079       .  S
C1602      C1605   1.444       .  S
C1605      N1607   1.157       .  T
C1606      N1608   1.157       .  T
C1609      C1610   1.406       .  A
C1609      C1614   1.416       .  A
C1610      C1611   1.405       .  A
C1610      H1615   1.085       .  S
C1611      C1612   1.415       .  A
C1612      C1613   1.403       .  A
C1613      C1614   1.398       .  A
C1613      H1616   1.085       .  S
C1614      C1617   1.445       .  S
C1617      N1619   1.157       .  T
C1618      N1620   1.157       .  T
C1621      C1622   1.395       .  A
C1622      H1627   1.082       .  S
C1623      C1624   1.402       .  A
C1624      C1625   1.397       .  A
C1625      C1626   1.386       .  A
C1625      H1628   1.084       .  S
C1626      C1629   1.446       .  S
C1629      N1631   1.157       .  T
C1630      N1632   1.156       .  T
