geometry optimzed in LAMMPS
_audit_creation_date              2020-11-30 
_audit_creation_method            'lammps2cif' 
_symmetry_space_group_name_H-M    'P1' 
_symmetry_Int_Tables_number       1 
_symmetry_cell_setting            triclinic 
loop_ 
_symmetry_equiv_pos_as_xyz 
  x,y,z 
_cell_length_a                    39.36005395 
_cell_length_b                    40.945566976597746 
_cell_length_c                    76.44662578807282 
_cell_angle_alpha                 90.36119687379184 
_cell_angle_beta                  90.40293453724364 
_cell_angle_gamma                 120.22618923809289 
loop_ 
_atom_site_label 
_atom_site_type_symbol 
_atom_site_fract_x 
_atom_site_fract_y 
_atom_site_fract_z 
_atom_site_charge 
C1          C  0.33703655  0.17209560  0.54181989     0.45700
H2          H  0.33780665  0.17227659  0.52729745    -0.03300
C3          C  0.33548495  0.17142745  0.57591389     0.45700
H4          H  0.33466926  0.17079179  0.59043977    -0.03300
C5          C  0.37810141  0.19067203  0.55054173    -0.17000
C6          C  0.31746383  0.19321234  0.54973866    -0.16800
C7          C  0.31478561  0.13217668  0.54962447    -0.17200
C8          C  0.37704629  0.19050754  0.56849884    -0.17100
C9          C  0.31645885  0.19244310  0.56771380    -0.16700
C10         C  0.31426649  0.13208994  0.56751287    -0.17000
C11         C  0.17225160  0.34129069  0.45974337     0.45700
H12         H  0.17236631  0.34098480  0.44520773    -0.03300
C13         C  0.17227884  0.34213600  0.49380630     0.45700
H14         H  0.17239681  0.34232835  0.50833415    -0.03300
C15         C  0.19432979  0.32332092  0.46804756    -0.17000
C16         C  0.19079285  0.38112986  0.46761298    -0.16800
C17         C  0.13098152  0.31997913  0.46740084    -0.17200
C18         C  0.19455348  0.32360460  0.48596644    -0.17100
C19         C  0.19207602  0.38203547  0.48564901    -0.16700
C20         C  0.13068009  0.32005344  0.48540045    -0.17000
O21         O  0.09793947  0.25030775  0.69916487    -0.80700
O22         O  0.18811655  0.38532372  0.64826983    -0.65300
O23         O  0.16346069  0.31197259  0.68409692    -1.11900
C24         C  0.12309354  0.38920021  0.71433529     1.06200
O25         O  0.21821015  0.42956496  0.66823278    -0.78600
O26         O  0.21483582  0.42343266  0.70324236    -0.66100
Ni27       Ni  0.13063271  0.25951882  0.67904958     1.34900
C28         C  0.21877555  0.39923071  0.71192544     0.85000
O29         O  0.19736440  0.32454376  0.65097160    -0.79100
O30         O  0.16076139  0.26364855  0.65864418    -0.89400
C31         C  0.20909175  0.42008814  0.65232530     0.84500
O32         O  0.09189472  0.26265669  0.66533230    -0.67600
O33         O  0.14163794  0.41395313  0.70268394    -0.86900
C34         C  0.09493881  0.28699766  0.65435844     0.85400
C35         C  0.18663146  0.28963199  0.64907542     1.06900
H36         H  0.12651863  0.36107154  0.67637331     0.38700
O37         O  0.15202060  0.36736405  0.68102031    -1.09500
O38         O  0.19485864  0.36380589  0.71052458    -0.66200
Ni39       Ni  0.14317513  0.33412358  0.69994437     1.26300
O40         O  0.12589289  0.31911775  0.65292245    -0.66400
O41         O  0.12272645  0.35779292  0.71521564    -0.78700
C42         C  0.10892221  0.26251109  0.71469108     0.84800
O43         O  0.13291446  0.29736456  0.71764862    -0.65900
Ni44       Ni  0.17920736  0.42026854  0.68538030     1.27400
Ni45       Ni  0.17515825  0.34708694  0.66557215     1.26100
H46         H  0.18803650  0.31545308  0.68866859     0.39300
C47         C  0.48720277  0.01296120  0.79254545     0.45700
H48         H  0.48797592  0.01424673  0.77803106    -0.03300
C49         C  0.48592013  0.01077677  0.82659785     0.45700
H50         H  0.48533921  0.00976273  0.84111851    -0.03300
C51         C  0.50406532  0.48733586  0.79971239    -0.17000
C52         C  0.50955026  0.05198858  0.80137202    -0.16800
C53         C  0.44641553  0.49460175  0.79854916    -0.17200
C54         C  0.50322354  0.48709959  0.81766916    -0.17100
C55         C  0.50911547  0.05113188  0.81930595    -0.16700
C56         C  0.44533446  0.49435623  0.81655815    -0.17000
C57         C  0.15008040  0.34064545  0.87446123     0.45700
H58         H  0.15025084  0.34161223  0.85994952    -0.03300
C59         C  0.14947283  0.33889800  0.90851361     0.45700
H60         H  0.14908848  0.33792860  0.92303691    -0.03300
C61         C  0.13247997  0.30049905  0.88193038    -0.17000
C62         C  0.19134747  0.36329826  0.88294335    -0.16800
C63         C  0.12632191  0.35700907  0.88292157    -0.17200
C64         C  0.13204810  0.29987463  0.89988090    -0.17100
C65         C  0.19077824  0.36251891  0.90094099    -0.16700
C66         C  0.12604928  0.35591886  0.90082853    -0.17000
C67         C  0.35930806  0.17316653  0.15843778     0.45700
H68         H  0.36058740  0.17303573  0.17295882    -0.03300
C69         C  0.35512645  0.17250687  0.12444528     0.45700
H70         H  0.35312548  0.17216350  0.10993580    -0.03300
C71         C  0.37771932  0.15197595  0.14957901    -0.17000
C72         C  0.31713663  0.15375813  0.15107462    -0.16800
C73         C  0.38035425  0.21304067  0.15045247    -0.17200
C74         C  0.37550130  0.15166311  0.13159370    -0.17100
C75         C  0.31490141  0.15358185  0.13319140    -0.16700
C76         C  0.37788119  0.21250247  0.13243613    -0.17000
C77         C  0.02356802  0.49861777  0.20792002     0.45700
H78         H  0.02460963  0.49767094  0.19343216    -0.03300
C79         C  0.01948908  0.49917749  0.24190837     0.45700
H80         H  0.01735596  0.49933374  0.25639814    -0.03300
C81         C  0.06237661  0.02173899  0.21678621    -0.17000
C82         C  0.99729809  0.01620800  0.21656067    -0.16800
C83         C  0.00318837  0.45894474  0.21604026    -0.17200
C84         C  0.06134176  0.02194740  0.23489911    -0.17100
C85         C  0.99685701  0.01556497  0.23442125    -0.16700
C86         C  0.00140827  0.45948391  0.23390529    -0.17000
O87         O  0.27921624  0.08264923  0.36346035    -0.80700
O88         O  0.37678083  0.21767228  0.31647047    -0.65300
O89         O  0.34890184  0.14503211  0.35236206    -1.11900
C90         C  0.30664572  0.22157512  0.38068590     1.06200
O91         O  0.40718110  0.26362800  0.33586318    -0.78600
O92         O  0.40285710  0.25246888  0.37058393    -0.66100
Ni93       Ni  0.32016689  0.09237490  0.34708158     1.34900
C94         C  0.40098938  0.22704072  0.38060876     0.85000
O95         O  0.38552628  0.15726091  0.31986927    -0.79100
O96         O  0.35945724  0.09843381  0.33065254    -0.89400
C97         C  0.39942328  0.25233226  0.32005142     0.84500
O98         O  0.28745611  0.09246144  0.32850736    -0.67600
O99         O  0.33133631  0.24816557  0.37102076    -0.86900
C100        C  0.28781417  0.11863357  0.31957194     0.85400
C101        C  0.38211654  0.12455497  0.32025036     1.06900
H102        H  0.31485847  0.19694331  0.34276969     0.38700
O103        O  0.33893471  0.20120545  0.34829214    -1.09500
O104        O  0.37249082  0.19312308  0.38013463    -0.66200
Ni105      Ni  0.32445129  0.16559269  0.36664853     1.26300
O106        O  0.31408420  0.15306966  0.32118313    -0.66400
O107        O  0.30070884  0.18792325  0.38032339    -0.78700
C108        C  0.28550009  0.09242224  0.37951398     0.84800
O109        O  0.30850580  0.12679495  0.38371373    -0.65900
Ni110      Ni  0.36833972  0.25376810  0.35341573     1.27400
Ni111      Ni  0.36263445  0.18015497  0.33388285     1.26100
H112        H  0.37308742  0.14981230  0.35796633     0.39300
O113        O  0.05319681  0.10211634  0.00152124    -0.80700
O114        O  0.48991475  0.45889393  0.04998241    -0.65300
O115        O  0.03806313  0.03234069  0.01431605    -1.11900
C116        C  0.41449486  0.46472427  0.98698242     1.06200
O117        O  0.46825338  0.41437580  0.02966353    -0.78600
O118        O  0.47623452  0.42951473  0.99555365    -0.66100
Ni119      Ni  0.06318607  0.08349583  0.02273309     1.34900
C120        C  0.00640557  0.45364669  0.98754465     0.85000
O121        O  0.06365614  0.01309904  0.04463374    -0.79100
O122        O  0.07934412  0.07330080  0.04493793    -0.89400
C123        C  0.47448707  0.42434177  0.04565564     0.84500
O124        O  0.01556817  0.07598154  0.03236744    -0.67600
O125        O  0.41061436  0.43693241  0.99595106    -0.86900
C126        C  0.49555279  0.05275511  0.04599633     0.85400
C127        C  0.08336691  0.04645567  0.05079055     1.06900
H128        H  0.45073471  0.48545410  0.02524000     0.38700
O129        O  0.46922958  0.48060274  0.01921301    -1.09500
O130        O  0.01339551  0.48751457  0.98843818    -0.66200
Ni131      Ni  0.49422629  0.01840839  0.00141687     1.26300
O132        O  0.49946632  0.02384050  0.04784372    -0.66400
O133        O  0.44477718  0.49775173  0.98778383    -0.78700
C134        C  0.03651563  0.08913935  0.98678334     0.84800
O135        O  0.01341023  0.05407865  0.98399583    -0.65900
Ni136      Ni  0.44114358  0.42822500  0.01292760     1.27400
Ni137      Ni  0.01709440  0.49464854  0.03466592     1.26100
H138        H  0.05697730  0.02880941  0.00780238     0.39300
C139        C  0.15889350  0.09349954  0.25633199    -0.27400
C140        C  0.16124406  0.07149656  0.26978198     0.02200
C141        C  0.12967415  0.03472276  0.27239306     0.30300
C142        C  0.09735921  0.01958687  0.26105673    -0.19200
C143        C  0.09572030  0.04052304  0.24698725    -0.28600
C144        C  0.12607939  0.07834481  0.24505186     0.44400
C145        C  0.19650617  0.08638809  0.28114426     0.05500
O146        O  0.12975700  0.01383870  0.28636326    -0.57100
H147        H  0.07367420  0.99105744  0.26322071     0.18500
O148        O  0.12409314  0.10051997  0.23218126    -0.63800
H149        H  0.18268433  0.12219163  0.25446799     0.16900
C150        C  0.21706747  0.06661056  0.28257387     0.29200
C151        C  0.24640623  0.07720626  0.29530929    -0.24700
C152        C  0.25681939  0.10844754  0.30627921    -0.24000
C153        C  0.23818647  0.12991196  0.30405957     0.40600
C154        C  0.20783805  0.11853497  0.29164482    -0.26400
O155        O  0.20813898  0.03641504  0.27175493    -0.58300
H156        H  0.26137464  0.06118820  0.29650958     0.16300
O157        O  0.24777827  0.16058958  0.31465234    -0.59800
H158        H  0.19228365  0.13402496  0.29061594     0.14700
H159        H  0.10964800  0.11211570  0.23743808     0.46600
H160        H  0.22418022  0.04753912  0.26116672     0.41900
H161        H  0.26721918  0.18278045  0.30796777     0.45400
H162        H  0.13197218  0.99265809  0.28126527     0.36900
C163        C  0.46400187  0.34263774  0.29549083    -0.27400
C164        C  0.44299427  0.33540979  0.27972546     0.02200
C165        C  0.40963436  0.29976298  0.27662320     0.30300
C166        C  0.39688105  0.27211659  0.28955119    -0.19200
C167        C  0.41663705  0.27996696  0.30579145    -0.28600
C168        C  0.45090208  0.31539848  0.30856387     0.44400
C169        C  0.45547983  0.36610854  0.26702687     0.05500
O170        O  0.38956662  0.29173756  0.26097971    -0.57100
H171        H  0.37058546  0.24504714  0.28711251     0.18500
O172        O  0.47198504  0.32360971  0.32393186    -0.63800
H173        H  0.48999273  0.36997993  0.29787710     0.16900
C174        C  0.43297952  0.38363303  0.26428690     0.29200
C175        C  0.44685008  0.41476200  0.25324511    -0.24700
C176        C  0.48317033  0.42878389  0.24503651    -0.24000
C177        C  0.00287419  0.40353443  0.24639940     0.40600
C178        C  0.49178490  0.38015446  0.25877626    -0.26400
O179        O  0.39800824  0.37118153  0.27273071    -0.58300
H180        H  0.42956610  0.42831430  0.25127702     0.16300
O181        O  0.03676211  0.41308542  0.23756350    -0.59800
H182        H  0.00183368  0.35605689  0.25876194     0.14700
H183        H  0.46415434  0.33928365  0.33085296     0.46600
H184        H  0.40521546  0.38453700  0.28420930     0.41900
H185        H  0.05835819  0.43231254  0.24503772     0.45400
H186        H  0.36655150  0.29480128  0.26326838     0.36900
C187        C  0.42883466  0.11609513  0.27852289    -0.27400
C188        C  0.43891724  0.08902160  0.28337999     0.02200
C189        C  0.43408975  0.07693753  0.30084777     0.30300
C190        C  0.41699300  0.09003998  0.31288097    -0.19200
C191        C  0.40482869  0.11549919  0.30783290    -0.28600
C192        C  0.41182157  0.12933620  0.29060236     0.44400
C193        C  0.45297936  0.07239381  0.27003075     0.05500
O194        O  0.44680429  0.05294576  0.30630224    -0.57100
H195        H  0.41271449  0.07979004  0.32617914     0.18500
O196        O  0.40061660  0.15445713  0.28521139    -0.63800
H197        H  0.43276190  0.12588028  0.26515256     0.16900
C198        C  0.43355496  0.03294240  0.26731718     0.29200
C199        C  0.44847281  0.01743766  0.25544723    -0.24700
C200        C  0.48178409  0.04078740  0.24565417    -0.24000
C201        C  0.50037926  0.08024843  0.24775219     0.40600
C202        C  0.48597703  0.09586728  0.25995241    -0.26400
O203        O  0.40001005  0.00927928  0.27624679    -0.58300
H204        H  0.43391066  0.98706991  0.25384278     0.16300
O205        O  0.03055697  0.09531016  0.23955730    -0.59800
H206        H  0.50113401  0.12624858  0.26185956     0.14700
H207        H  0.37314278  0.13862953  0.28091841     0.46600
H208        H  0.37821038  0.00817398  0.26919091     0.41900
H209        H  0.02363122  0.10947430  0.23116986     0.45400
H210        H  0.42278740  0.02921217  0.30962563     0.36900
C211        C  0.40491186  0.30713500  0.11182699    -0.27400
C212        C  0.42580085  0.30657068  0.09715095     0.02200
C213        C  0.43164107  0.27576067  0.09444441     0.30300
C214        C  0.41673599  0.24607405  0.10635963    -0.19200
C215        C  0.39512042  0.24607756  0.12088697    -0.28600
C216        C  0.38891420  0.27684648  0.12348261     0.44400
C217        C  0.43897199  0.33689207  0.08406284     0.05500
O218        O  0.45239870  0.27477936  0.08029961    -0.57100
H219        H  0.42188831  0.22275269  0.10415873     0.18500
O220        O  0.36647725  0.27725481  0.13702393    -0.63800
H221        H  0.39972534  0.33047343  0.11386417     0.16900
C222        C  0.42196425  0.32879343  0.06722084     0.29200
C223        C  0.43445249  0.35744422  0.05487448    -0.24700
C224        C  0.46351903  0.39479744  0.05908177    -0.24000
C225        C  0.48041761  0.40297410  0.07603965     0.40600
C226        C  0.46809406  0.37403655  0.08838746    -0.26400
O227        O  0.39267311  0.29296643  0.06276845    -0.58300
H228        H  0.42062428  0.35045869  0.04203208     0.16300
O229        O  0.99866522  0.43684384  0.08371187    -0.59800
H230        H  0.48144862  0.38051527  0.10132613     0.14700
H231        H  0.33890074  0.26235481  0.13277107     0.46600
H232        H  0.36802045  0.29135487  0.06685771     0.41900
H233        H  0.97921760  0.44375082  0.08780014     0.45400
H234        H  0.43246429  0.25575441  0.07213155     0.36900
C235        C  0.16525350  0.05192389  0.07958729    -0.27400
C236        C  0.17251894  0.08209992  0.09085987     0.02200
C237        C  0.14735167  0.09718011  0.09010094     0.30300
C238        C  0.11748099  0.08410110  0.07743129    -0.19200
C239        C  0.11147569  0.05536015  0.06550023    -0.28600
C240        C  0.13485836  0.03840193  0.06701345     0.44400
C241        C  0.20819599  0.09993018  0.10226294     0.05500
O242        O  0.15246498  0.12556496  0.10136350    -0.57100
H243        H  0.09937319  0.09708234  0.07670742     0.18500
O244        O  0.12969996  0.01007864  0.05570944    -0.63800
H245        H  0.18437760  0.04003668  0.07993956     0.16900
C246        C  0.21666193  0.07860999  0.11404207     0.29200
C247        C  0.25122126  0.09634938  0.12421911    -0.24700
C248        C  0.27767473  0.13532567  0.12285532    -0.24000
C249        C  0.26925360  0.15657522  0.11108411     0.40600
C250        C  0.23482568  0.13891098  0.10089726    -0.26400
O251        O  0.19084156  0.04070024  0.11602118    -0.58300
H252        H  0.25774932  0.07940276  0.13289394     0.16300
O253        O  0.29461942  0.19463802  0.10938702    -0.59800
H254        H  0.22911992  0.15568504  0.09171526     0.14700
H255        H  0.14724802  0.02311077  0.04574367     0.46600
H256        H  0.20326948  0.02775659  0.11013637     0.41900
H257        H  0.28444678  0.20687409  0.11734326     0.45400
H258        H  0.13867279  0.11258310  0.11219005     0.36900
C259        C  0.38154284  0.09188229  0.09490009    -0.27400
C260        C  0.41998277  0.09860856  0.09703489     0.02200
C261        C  0.44368665  0.12246861  0.11079541     0.30300
C262        C  0.42902183  0.13971366  0.12192226    -0.19200
C263        C  0.39052830  0.13291178  0.11978065    -0.28600
C264        C  0.36668814  0.10855921  0.10619395     0.44400
C265        C  0.43595280  0.08317814  0.08391765     0.05500
O266        O  0.48196273  0.13094013  0.11276898    -0.57100
H267        H  0.44799978  0.15891016  0.13209771     0.18500
O268        O  0.32874510  0.10073159  0.10383090    -0.63800
H269        H  0.36299654  0.07367309  0.08435882     0.16900
C270        C  0.45231784  0.06081256  0.08876748     0.29200
C271        C  0.46985697  0.04928005  0.07611706    -0.24700
C272        C  0.47144936  0.05986324  0.05854502    -0.24000
C273        C  0.45328537  0.08062634  0.05360938     0.40600
C274        C  0.43551276  0.09182684  0.06622343    -0.26400
O275        O  0.45194894  0.05065065  0.10585456    -0.58300
H276        H  0.48363486  0.03333212  0.08019382     0.16300
O277        O  0.99156944  0.12110597  0.04221154    -0.59800
H278        H  0.95763798  0.13397013  0.06813667     0.14700
H279        H  0.31271746  0.07888386  0.11147321     0.46600
H280        H  0.42619016  0.02724727  0.10730231     0.41900
H281        H  0.01803260  0.14040039  0.04658378     0.45400
H282        H  0.48263207  0.11841533  0.12372766     0.36900
C283        C  0.42096655  0.04043398  0.19612614    -0.27400
C284        C  0.44415498  0.07453265  0.18731283     0.02200
C285        C  0.48539888  0.09115227  0.18786853     0.30300
C286        C  0.00303878  0.06855453  0.19848468    -0.19200
C287        C  0.47971762  0.04021665  0.20613429    -0.28600
C288        C  0.43849476  0.02333897  0.20555335     0.44400
C289        C  0.42544323  0.09339437  0.17809234     0.05500
O290        O  0.01125159  0.12064130  0.18147143    -0.57100
H291        H  0.03456574  0.08245932  0.20016536     0.18500
O292        O  0.41556500  0.48903506  0.21108307    -0.63800
H293        H  0.38924275  0.02744199  0.19602716     0.16900
C294        C  0.39618004  0.07429932  0.16514863     0.29200
C295        C  0.38026350  0.09336798  0.15619258    -0.24700
C296        C  0.39338277  0.13161167  0.15983199    -0.24000
C297        C  0.42183178  0.15036834  0.17307947     0.40600
C298        C  0.43749704  0.13125180  0.18213328    -0.26400
O299        O  0.38442645  0.03764171  0.16056001    -0.58300
H300        H  0.35793582  0.07834974  0.14620611     0.16300
O301        O  0.43523663  0.18765594  0.17700583    -0.59800
H302        H  0.45951561  0.14619793  0.19224693     0.14700
H303        H  0.40101133  0.49500869  0.21986821     0.46600
H304        H  0.35813960  0.02217462  0.16583515     0.41900
H305        H  0.45748290  0.20207993  0.16898451     0.45400
H306        H  0.01507170  0.11404602  0.16942383     0.36900
C307        C  0.22399244  0.13007331  0.17484808    -0.27400
C308        C  0.21077075  0.09263979  0.17998977     0.02200
C309        C  0.23412937  0.07631470  0.17628846     0.30300
C310        C  0.27007576  0.09754837  0.16776474    -0.19200
C311        C  0.28230848  0.13433090  0.16223175    -0.28600
C312        C  0.25915643  0.15063254  0.16577507     0.44400
C313        C  0.17200137  0.07105947  0.18863582     0.05500
O314        O  0.22059903  0.03886571  0.17963779    -0.57100
H315        H  0.28743467  0.08455725  0.16458914     0.18500
O316        O  0.27062892  0.18655170  0.16033809    -0.63800
H317        H  0.20662712  0.14323086  0.17762794     0.16900
C318        C  0.16725985  0.05122066  0.20425314     0.29200
C319        C  0.13074084  0.03307850  0.21246147    -0.24700
C320        C  0.09922341  0.03705151  0.20631693    -0.24000
C321        C  0.10367876  0.05597400  0.19038312     0.40600
C322        C  0.13955377  0.07207152  0.18157592    -0.26400
O323        O  0.19842957  0.05065590  0.21205498    -0.58300
H324        H  0.12766688  0.01691880  0.22408672     0.16300
O325        O  0.07347087  0.05934045  0.18334070    -0.59800
H326        H  0.14234800  0.08649666  0.16936903     0.14700
H327        H  0.25701092  0.18322727  0.14894089     0.46600
H328        H  0.20957815  0.07208899  0.22053206     0.41900
H329        H  0.08373859  0.08687165  0.18220382     0.45400
H330        H  0.23979448  0.03850494  0.18800013     0.36900
C331        C  0.42879976  0.37241367  0.19183696    -0.27400
C332        C  0.45181272  0.35537622  0.18923177     0.02200
C333        C  0.49152339  0.37512995  0.19491125     0.30300
C334        C  0.01136674  0.40970762  0.20053419    -0.19200
C335        C  0.48398943  0.42711744  0.20585555    -0.28600
C336        C  0.44440335  0.40756998  0.20037963     0.44400
C337        C  0.43446568  0.31760336  0.18029223     0.05500
O338        O  0.02049725  0.35965412  0.19020402    -0.57100
H339        H  0.04272183  0.42645852  0.20309156     0.18500
O340        O  0.42072740  0.42263085  0.20328704    -0.63800
H341        H  0.39853060  0.35839811  0.18729160     0.16900
C342        C  0.39697940  0.28730919  0.18472815     0.29200
C343        C  0.38034952  0.25307701  0.17529115    -0.24700
C344        C  0.40067134  0.24803644  0.16149582    -0.24000
C345        C  0.43918017  0.27720873  0.15789695     0.40600
C346        C  0.45530999  0.31180588  0.16692244    -0.26400
O347        O  0.37609106  0.29088531  0.19814964    -0.58300
H348        H  0.35095010  0.23075431  0.17843917     0.16300
O349        O  0.46110952  0.27252813  0.14533518    -0.59800
H350        H  0.48405097  0.33443376  0.16318568     0.14700
H351        H  0.40965795  0.41387582  0.21508148     0.46600
H352        H  0.38717162  0.28643200  0.20896122     0.41900
H353        H  0.47388104  0.26008561  0.15136747     0.45400
H354        H  0.01941269  0.34568429  0.20093344     0.36900
C355        C  0.31303192  0.42011647  0.96643221    -0.27400
C356        C  0.32190942  0.43355520  0.94930755     0.02200
C357        C  0.36080545  0.46061010  0.94509792     0.30300
C358        C  0.39067911  0.47259891  0.95783518    -0.19200
C359        C  0.38218657  0.45718363  0.97468824    -0.28600
C360        C  0.34282681  0.43147319  0.97905372     0.44400
C361        C  0.29024151  0.41785946  0.93594424     0.05500
O362        O  0.36970527  0.47554377  0.92862887    -0.57100
H363        H  0.42072432  0.49257391  0.95429453     0.18500
O364        O  0.33320041  0.41753306  0.99568414    -0.63800
H365        H  0.28302464  0.39974798  0.96986897     0.16900
C366        C  0.28995905  0.39437110  0.92233470     0.29200
C367        C  0.25784040  0.37699818  0.91073858    -0.24700
C368        C  0.22573787  0.38268995  0.91259676    -0.24000
C369        C  0.22628323  0.40644343  0.92614562     0.40600
C370        C  0.25838894  0.42380645  0.93769318    -0.26400
O371        O  0.32036463  0.38734346  0.92060121    -0.58300
H372        H  0.25754488  0.35833509  0.90055271     0.16300
O373        O  0.19608071  0.41376351  0.92787469    -0.59800
H374        H  0.25828859  0.44172284  0.94816412     0.14700
H375        H  0.32873854  0.39146146  0.99495939     0.46600
H376        H  0.31411270  0.36612370  0.92860737     0.41900
H377        H  0.18159808  0.39984780  0.93841361     0.45400
H378        H  0.38202238  0.46253231  0.92271607     0.36900
C379        C  0.05325350  0.13537863  0.94194721    -0.27400
C380        C  0.07099735  0.17366457  0.94685937     0.02200
C381        C  0.07417540  0.18342274  0.96468902     0.30300
C382        C  0.06141192  0.15535460  0.97734612    -0.19200
C383        C  0.04543973  0.11704878  0.97263852    -0.28600
C384        C  0.04067258  0.10709873  0.95468702     0.44400
C385        C  0.08714191  0.20369781  0.93351859     0.05500
O386        O  0.08899146  0.22039258  0.96982427    -0.57100
H387        H  0.06458229  0.16386305  0.99098563     0.18500
O388        O  0.02477831  0.07012398  0.94942547    -0.63800
H389        H  0.05028702  0.12752618  0.92822311     0.16900
C390        C  0.12727118  0.23169237  0.93395096     0.29200
C391        C  0.14140680  0.26247673  0.92272671    -0.24700
C392        C  0.11628039  0.26539483  0.91061524    -0.24000
C393        C  0.07649044  0.23664186  0.90956191     0.40600
C394        C  0.06212651  0.20599687  0.92104215    -0.26400
O395        O  0.15275840  0.22955406  0.94557426    -0.58300
H396        H  0.17212957  0.28431601  0.92352133     0.16300
O397        O  0.05104578  0.23961712  0.89820746    -0.59800
H398        H  0.03117753  0.18474812  0.92063020     0.14700
H399        H  0.04752596  0.06622160  0.94803323     0.46600
H400        H  0.16331440  0.21537992  0.93927741     0.41900
H401        H  0.04306441  0.21879153  0.88955309     0.45400
H402        H  0.11488945  0.22824053  0.97536078     0.36900
C403        C  0.06381482  0.36420777  0.93607758    -0.27400
C404        C  0.07661199  0.40304676  0.93586817     0.02200
C405        C  0.10487436  0.42615032  0.92351033     0.30300
C406        C  0.11984726  0.41026374  0.91173378    -0.19200
C407        C  0.10735430  0.37160440  0.91222090    -0.28600
C408        C  0.07912768  0.34854752  0.92445805     0.44400
C409        C  0.06120752  0.41886498  0.94913937     0.05500
O410        O  0.12007940  0.46456183  0.92371315    -0.57100
H411        H  0.14240686  0.42843705  0.90265178     0.18500
O412        O  0.06671042  0.31072523  0.92530900    -0.63800
H413        H  0.04203007  0.34594421  0.94541756     0.16900
C414        C  0.04500402  0.44148985  0.94438098     0.29200
C415        C  0.02925994  0.45452667  0.95720096    -0.24700
C416        C  0.02785094  0.44399434  0.97472154    -0.24000
C417        C  0.04411601  0.42155964  0.97951227     0.40600
C418        C  0.06088776  0.40947187  0.96681524    -0.26400
O419        O  0.04265838  0.44954642  0.92718299    -0.58300
H420        H  0.51163474  0.47280645  0.95167037     0.16000
O421        O  0.04329615  0.41087072  0.99654805    -0.59800
H422        H  0.07324748  0.39220734  0.97076313     0.14700
H423        H  0.04301180  0.29809763  0.91765148     0.46600
H424        H  0.51479621  0.42952714  0.92096034     0.41900
H425        H  0.06657096  0.43237812  0.00227335     0.45400
H426        H  0.11230401  0.47050161  0.91232707     0.36900
C427        C  0.04786162  0.37643075  0.86599442    -0.27400
C428        C  0.07055860  0.41018427  0.85692080     0.02200
C429        C  0.11143040  0.42506973  0.85551907     0.30300
C430        C  0.12912920  0.40650082  0.86338420    -0.19200
C431        C  0.10649951  0.37332170  0.87280293    -0.28600
C432        C  0.06558147  0.35799363  0.87390397     0.44400
C433        C  0.05127951  0.42916171  0.84852725     0.05500
O434        O  0.13431091  0.45787683  0.84660941    -0.57100
H435        H  0.16070559  0.41862427  0.86261798     0.18500
O436        O  0.04286814  0.32554881  0.88308047    -0.63800
H437        H  0.01640334  0.36465307  0.86712764     0.16900
C438        C  0.02207723  0.41031909  0.83557225     0.29200
C439        C  0.50187657  0.42705610  0.82530903    -0.24700
C440        C  0.01961839  0.46769933  0.83053145    -0.24000
C441        C  0.04722659  0.48598223  0.84414545     0.40600
C442        C  0.06309894  0.46675036  0.85297391    -0.26400
O443        O  0.50366408  0.37012821  0.82984957    -0.58300
H444        H  0.47849887  0.41219054  0.81573218     0.16300
O445        O  0.07264106  0.02613059  0.84169270    -0.59800
H446        H  0.08523375  0.48139850  0.86308038     0.14700
H447        H  0.03651329  0.30458252  0.87472362     0.46600
H448        H  0.51813947  0.37012222  0.81928203     0.41900
H449        H  0.06043222  0.03103656  0.85192011     0.45400
H450        H  0.13188894  0.45010439  0.83413941     0.36900
C451        C  0.08906670  0.14713305  0.83515120    -0.27400
C452        C  0.06686621  0.15658331  0.84612829     0.02200
C453        C  0.02716437  0.12967772  0.84916874     0.30300
C454        C  0.00977456  0.09435547  0.84070193    -0.19200
C455        C  0.03158971  0.08560166  0.82912062    -0.28600
C456        C  0.07176848  0.11185824  0.82674502     0.44400
C457        C  0.08554641  0.19456478  0.85437979     0.05500
O458        O  0.00505257  0.13787845  0.86018916    -0.57100
H459        H  0.47548245  0.07493247  0.84319548     0.18500
O460        O  0.09406525  0.10362972  0.81585652    -0.63800
H461        H  0.11974142  0.16745264  0.83285968     0.16900
C462        C  0.11650191  0.20583990  0.86653996     0.29200
C463        C  0.13299207  0.24130799  0.87469436    -0.24700
C464        C  0.11888404  0.26595177  0.87097610    -0.24000
C465        C  0.08936963  0.25553715  0.85809806     0.40600
C466        C  0.07256165  0.21979330  0.85002530    -0.26400
O467        O  0.12923701  0.18148681  0.87126756    -0.58300
H468        H  0.15609999  0.24914910  0.88439542     0.16300
O469        O  0.07490142  0.27891668  0.85420789    -0.59800
H470        H  0.04903517  0.21153432  0.84050088     0.14700
H471        H  0.10712263  0.09381351  0.82359755     0.46600
H472        H  0.15361168  0.18959204  0.86454501     0.41900
H473        H  0.08870593  0.29225297  0.84344789     0.45400
H474        H  0.01023411  0.13157393  0.87204978     0.36900
C475        C  0.34698233  0.47467149  0.83448015    -0.27400
C476        C  0.33764909  0.44387588  0.84540050     0.02200
C477        C  0.36489369  0.43145595  0.84752483     0.30300
C478        C  0.40029582  0.44895325  0.83840923    -0.19200
C479        C  0.40890566  0.47863978  0.82694098    -0.28600
C480        C  0.38241857  0.49209922  0.82527952     0.44400
C481        C  0.29924991  0.42425246  0.85434680     0.05500
O482        O  0.35693167  0.40190389  0.85834417    -0.57100
H483        H  0.42062228  0.43857957  0.83989595     0.18500
O484        O  0.39074787  0.52199105  0.81462597    -0.63800
H485        H  0.32644112  0.48474238  0.83287099     0.16900
C486        C  0.28946796  0.44283732  0.86717168     0.29200
C487        C  0.25378261  0.42309405  0.87604932    -0.24700
C488        C  0.22765826  0.38459019  0.87248051    -0.24000
C489        C  0.23703466  0.36628493  0.85933723     0.40600
C490        C  0.27272087  0.38605592  0.85046009    -0.26400
O491        O  0.31504873  0.47998671  0.87143046    -0.58300
H492        H  0.24678202  0.43771508  0.88597746     0.16300
O493        O  0.21259729  0.32853865  0.85579456    -0.59800
H494        H  0.27996720  0.37141061  0.84063725     0.14700
H495        H  0.40804381  0.54488566  0.82173579     0.46600
H496        H  0.33198385  0.47931448  0.88092644     0.41900
H497        H  0.19845320  0.32750639  0.84483084     0.45400
H498        H  0.36489441  0.41332027  0.87021649     0.36900
C499        C  0.29955329  0.46210984  0.74450293    -0.27400
C500        C  0.31631550  0.43985480  0.74864494     0.02200
C501        C  0.30077955  0.40398583  0.74048920     0.30300
C502        C  0.26887004  0.39084843  0.72873573    -0.19200
C503        C  0.25247516  0.41336455  0.72446052    -0.28600
C504        C  0.26826396  0.44937310  0.73251170     0.44400
C505        C  0.34953474  0.45416682  0.76159539     0.05500
O506        O  0.31686294  0.38165714  0.74370824    -0.57100
H507        H  0.25739864  0.36321053  0.72269391     0.18500
O508        O  0.25289647  0.47222694  0.72904191    -0.63800
H509        H  0.31034019  0.48938863  0.75081269     0.16900
C510        C  0.38220658  0.49117867  0.76059862     0.29200
C511        C  0.41278801  0.50403133  0.77299369    -0.24700
C512        C  0.41188419  0.48050517  0.78647037    -0.24000
C513        C  0.37972991  0.44335184  0.78731973     0.40600
C514        C  0.34865959  0.43073085  0.77517513    -0.26400
O515        O  0.38495665  0.51489171  0.74739347    -0.58300
H516        H  0.43326937  0.03187537  0.77445712     0.16300
O517        O  0.37876527  0.41875315  0.79965279    -0.59800
H518        H  0.32382925  0.40234948  0.77634968     0.14700
H519        H  0.23096366  0.46436068  0.73736025     0.46600
H520        H  0.39495447  0.01062445  0.74059114     0.41900
H521        H  0.39260406  0.40662059  0.79431773     0.45400
H522        H  0.33975120  0.39110810  0.73583136     0.36900
C523        C  0.04391482  0.17303862  0.73991932    -0.27400
C524        C  0.06723965  0.17816118  0.75472418     0.02200
C525        C  0.10273886  0.21248209  0.75716758     0.30300
C526        C  0.11525096  0.24077131  0.74448179    -0.19200
C527        C  0.09271644  0.23510525  0.72921460    -0.28600
C528        C  0.05625073  0.20113032  0.72724885     0.44400
C529        C  0.05474518  0.14675261  0.76713513     0.05500
O530        O  0.12619583  0.21792210  0.77151115    -0.57100
H531        H  0.14339558  0.26644469  0.74622639     0.18500
O532        O  0.03275847  0.19463371  0.71278773    -0.63800
H533        H  0.01635487  0.14679098  0.73802249     0.16900
C534        C  0.03045109  0.14282842  0.78129245     0.29200
C535        C  0.51252190  0.11183188  0.79256964    -0.24700
C536        C  0.02756907  0.08393810  0.78934083    -0.24000
C537        C  0.05207570  0.08806739  0.77517695     0.40600
C538        C  0.06541365  0.11928632  0.76417003    -0.26400
O539        O  0.51143310  0.16705310  0.78328874    -0.58300
H540        H  0.48922810  0.10592179  0.80170272     0.16300
O541        O  0.06298809  0.06165720  0.77191888    -0.59800
H542        H  0.08384494  0.12193446  0.75318203     0.14700
H543        H  0.01674674  0.20641879  0.71561343     0.46600
H544        H  0.48772998  0.15548425  0.77560485     0.41900
H545        H  0.08599033  0.06880800  0.77970864     0.45400
H546        H  0.11536047  0.22658437  0.78096479     0.36900
C547        C  0.07566578  0.43759846  0.73796144    -0.27400
C548        C  0.06951943  0.42154134  0.75456204     0.02200
C549        C  0.07864590  0.39302095  0.75770775     0.30300
C550        C  0.09459202  0.38144006  0.74430403    -0.19200
C551        C  0.10208957  0.39847015  0.72775556    -0.28600
C552        C  0.09165902  0.42632898  0.72461762     0.44400
C553        C  0.05281190  0.43484430  0.76817899     0.05500
O554        O  0.07143479  0.37593014  0.77369934    -0.57100
H555        H  0.10210231  0.35988809  0.74702964     0.18500
O556        O  0.09724046  0.44309760  0.70859704    -0.63800
H557        H  0.06828113  0.45931089  0.73538349     0.16900
C558        C  0.07637123  0.45899981  0.78185932     0.29200
C559        C  0.06120758  0.47577018  0.79301992    -0.24700
C560        C  0.02268665  0.46878965  0.79059325    -0.24000
C561        C  0.99891702  0.44370660  0.77720918     0.40600
C562        C  0.01402890  0.42693448  0.76615239    -0.26400
O563        O  0.11230184  0.96893130  0.78132043    -0.58300
H564        H  0.07865816  0.99717629  0.80072289     0.16300
O565        O  0.96058426  0.43485828  0.77504580    -0.59800
H566        H  0.99570732  0.40838865  0.75564511     0.14700
H567        H  0.07302248  0.42635080  0.70174533     0.46600
H568        H  0.12551250  0.98925562  0.77259869     0.41900
H569        H  0.45798897  0.44711547  0.76263058     0.45400
H570        H  0.09694770  0.38908864  0.78010126     0.36900
C571        C  0.20679904  0.25001814  0.44321381    -0.27400
C572        C  0.23959452  0.27317119  0.43294515     0.02200
C573        C  0.25923216  0.31269784  0.43544731     0.30300
C574        C  0.24496034  0.32854350  0.44746698    -0.19200
C575        C  0.21136498  0.30552528  0.45713158    -0.28600
C576        C  0.19296495  0.26601618  0.45545369     0.44400
C577        C  0.25263104  0.25637988  0.41923320     0.05500
O578        O  0.29290065  0.33592170  0.42646031    -0.57100
H579        H  0.26024685  0.35889188  0.44928120     0.18500
O580        O  0.16040860  0.24301160  0.46510943    -0.63800
H581        H  0.19129929  0.21960991  0.44142778     0.16900
C582        C  0.26163279  0.22796527  0.42307709     0.29200
C583        C  0.27746953  0.21537427  0.41011212    -0.24700
C584        C  0.28480627  0.23108919  0.39333075    -0.24000
C585        C  0.27406851  0.25823606  0.38931089     0.40600
C586        C  0.25759506  0.27021075  0.40214264    -0.26400
O587        O  0.25767132  0.21431917  0.43973167    -0.58300
H588        H  0.28582573  0.19466308  0.41344387     0.16300
O589        O  0.27927831  0.27300963  0.37282965    -0.59800
H590        H  0.24954002  0.29113933  0.39883158     0.14700
H591        H  0.17025333  0.23399082  0.47483742     0.46600
H592        H  0.23389481  0.18879351  0.43929595     0.41900
H593        H  0.30323048  0.29837314  0.37369548     0.45400
H594        H  0.28537571  0.34942313  0.41794161     0.36900
C595        C  0.06019735  0.26620613  0.42996491    -0.27400
C596        C  0.03086372  0.27553490  0.43244346     0.02200
C597        C  0.03348850  0.29813162  0.44693678     0.30300
C598        C  0.06567182  0.31169605  0.45850889    -0.19200
C599        C  0.09551500  0.30300790  0.45582162    -0.28600
C600        C  0.09233844  0.27975478  0.44149586     0.44400
C601        C  0.99858678  0.26268775  0.41938018     0.05500
O602        O  0.50164487  0.30456526  0.44959458    -0.57100
H603        H  0.06773015  0.32973755  0.46937520     0.18500
O604        O  0.12061201  0.27024045  0.43858772    -0.63800
H605        H  0.05852259  0.24887662  0.41884865     0.16900
C606        C  0.49124572  0.28886652  0.40856033     0.29200
C607        C  0.46063309  0.27688227  0.39633405    -0.24700
C608        C  0.43343939  0.23819949  0.39360573    -0.24000
C609        C  0.43775961  0.21142404  0.40352324     0.40600
C610        C  0.46859200  0.22358508  0.41579175    -0.26400
O611        O  0.01903289  0.32710608  0.41184918    -0.58300
H612        H  0.45823826  0.29820500  0.38900471     0.16300
O613        O  0.41204896  0.17340115  0.40146588    -0.59800
H614        H  0.47161815  0.20281384  0.42330002     0.14700
H615        H  0.10871493  0.24359078  0.44232791     0.46600
H616        H  0.04113886  0.33365100  0.40378819     0.41900
H617        H  0.42415605  0.16477324  0.39258830     0.45400
H618        H  0.51233660  0.33149612  0.44658056     0.36900
C619        C  0.25974330  0.04126675  0.42315897    -0.27400
C620        C  0.24189680  0.50678183  0.42037977     0.02200
C621        C  0.22370741  0.99619173  0.39987687     0.30300
C622        C  0.23899486  0.02565800  0.38781976    -0.19200
C623        C  0.26582754  0.06306298  0.39309792    -0.28600
C624        C  0.27514905  0.07084716  0.41109584     0.44400
C625        C  0.22941539  0.47552134  0.43288121     0.05500
O626        O  0.19525140  0.46451739  0.39881760    -0.57100
H627        H  0.23049611  0.01885773  0.37418486     0.18500
O628        O  0.30066622  0.10685856  0.41699173    -0.63800
H629        H  0.26833486  0.04744214  0.43681835     0.16900
C630        C  0.24265547  0.44963965  0.43091189     0.29200
C631        C  0.22988605  0.41930601  0.44235328    -0.24700
C632        C  0.20422626  0.41441293  0.45603007    -0.24000
C633        C  0.19074705  0.44027597  0.45797628     0.40600
C634        C  0.20347605  0.47070819  0.44641777    -0.26400
O635        O  0.25793387  0.94822125  0.41412207    -0.58300
H636        H  0.24032919  0.39967803  0.44056904     0.16300
O637        O  0.16354028  0.43477282  0.47046442    -0.59800
H638        H  0.19261427  0.49018972  0.44783385     0.14700
H639        H  0.28388454  0.11787125  0.41971948     0.46600
H640        H  0.24179991  0.92583250  0.40651151     0.41900
H641        H  0.17731591  0.45618658  0.47885741     0.45400
H642        H  0.20732220  0.45207931  0.39221999     0.36900
C643        C  0.29831968  0.24785776  0.60267358    -0.27400
C644        C  0.25909253  0.23741957  0.59912989     0.02200
C645        C  0.23901539  0.21270015  0.58501038     0.30300
C646        C  0.25807925  0.19834613  0.57486261    -0.19200
C647        C  0.29716850  0.20846632  0.57853191    -0.28600
C648        C  0.31729783  0.23333592  0.59257325     0.44400
C649        C  0.23906456  0.25116258  0.61082506     0.05500
O650        O  0.20125181  0.20347862  0.58073900    -0.57100
H651        H  0.24217011  0.17902409  0.56415472     0.18500
O652        O  0.35590091  0.24464233  0.59612606    -0.63800
H653        H  0.31406707  0.26682885  0.61351480     0.16900
C654        C  0.20526981  0.22542853  0.61991551     0.29200
C655        C  0.18812285  0.23862381  0.63179937    -0.24700
C656        C  0.20450156  0.27756347  0.63524091    -0.24000
C657        C  0.23802380  0.30344142  0.62582652     0.40600
C658        C  0.25515249  0.29009185  0.61383016    -0.26400
O659        O  0.18951234  0.18717512  0.61776731    -0.58300
H660        H  0.16224892  0.21793096  0.63864655     0.16300
O661        O  0.25524174  0.34164838  0.62867911    -0.59800
H662        H  0.28135208  0.31018487  0.60696865     0.14700
H663        H  0.35550929  0.23081021  0.60679676     0.46600
H664        H  0.20317391  0.18001112  0.62656274     0.41900
H665        H  0.24353914  0.35053312  0.61969345     0.45400
H666        H  0.18476835  0.17596490  0.58285604     0.36900
C667        C  0.46536787  0.26345612  0.59453394    -0.27400
C668        C  0.47259206  0.24025929  0.60559343     0.02200
C669        C  0.44928857  0.20064595  0.60368367     0.30300
C670        C  0.41871802  0.18491309  0.59133410    -0.19200
C671        C  0.41175415  0.20806159  0.58027593    -0.28600
C672        C  0.43539765  0.24755874  0.58180086     0.44400
C673        C  0.99975310  0.25037442  0.61710821     0.05500
O674        O  0.45612542  0.17701163  0.61384963    -0.57100
H675        H  0.40036995  0.15448052  0.59036537     0.18500
O676        O  0.42784614  0.27072215  0.57163914    -0.63800
H677        H  0.48249512  0.29391643  0.59597819     0.16900
C678        C  0.03868149  0.27678118  0.61239417     0.29200
C679        C  0.06910423  0.28987366  0.62489662    -0.24700
C680        C  0.06158395  0.27664641  0.64214384    -0.24000
C681        C  0.02251630  0.25117646  0.64698858     0.40600
C682        C  0.49607868  0.24471782  0.63643411    -0.26400
O683        O  0.04774365  0.28789315  0.59534812    -0.58300
H684        H  0.09898321  0.30906651  0.62084173     0.16300
O685        O  0.01378621  0.23778827  0.66373021    -0.59800
H686        H  0.46614948  0.22492607  0.64020800     0.14700
H687        H  0.44785637  0.27972290  0.56231669     0.46600
H688        H  0.05415851  0.31462497  0.59517916     0.41900
H689        H  0.01124479  0.25728999  0.67039608     0.45400
H690        H  0.47699788  0.17472575  0.60774761     0.36900
C691        C  0.30063423  0.04707724  0.59260752    -0.27400
C692        C  0.26531873  0.03635106  0.60126440     0.02200
C693        C  0.24523882  0.05613247  0.59811236     0.30300
C694        C  0.26106629  0.08681305  0.58673240    -0.19200
C695        C  0.29654759  0.09771079  0.57823804    -0.28600
C696        C  0.31634521  0.07763048  0.58111463     0.44400
C697        C  0.25153632  0.00671167  0.61468283     0.05500
O698        O  0.21067107  0.04623558  0.60643665    -0.57100
H699        H  0.24596272  0.10250719  0.58470993     0.18500
O700        O  0.35227067  0.08935825  0.57368095    -0.63800
H701        H  0.31675369  0.03258666  0.59525131     0.16900
C702        C  0.23470696  0.46862726  0.60814743     0.29200
C703        C  0.22210071  0.44059180  0.62097570    -0.24700
C704        C  0.22284359  0.44984795  0.63879162    -0.24000
C705        C  0.23563516  0.48781111  0.64351565     0.40600
C706        C  0.25105186  0.01666055  0.63218919    -0.26400
O707        O  0.23332646  0.45882266  0.59085913    -0.58300
H708        H  0.21200399  0.41166591  0.61698308     0.16300
O709        O  0.23615201  0.49832193  0.66063412    -0.59800
H710        H  0.26010295  0.04563416  0.63568608     0.14700
H711        H  0.34891133  0.06779939  0.56638047     0.46600
H712        H  0.25836532  0.45920210  0.58879465     0.41900
H713        H  0.21016790  0.49613708  0.66247335     0.45400
H714        H  0.18982112  0.02629661  0.59891520     0.36900
C715        C  0.21216161  0.26198898  0.51750683    -0.27400
C716        C  0.25133303  0.27275229  0.51389046     0.02200
C717        C  0.27243170  0.30185556  0.50191564     0.30300
C718        C  0.25404759  0.31911433  0.49340149    -0.19200
C719        C  0.21451733  0.30771638  0.49661690    -0.28600
C720        C  0.19377656  0.27939379  0.50901598     0.44400
C721        C  0.26979036  0.25306533  0.52244215     0.05500
O722        O  0.31042787  0.31228547  0.49783378    -0.57100
H723        H  0.27057653  0.34111911  0.48402857     0.18500
O724        O  0.15520522  0.26767073  0.51248592    -0.63800
H725        H  0.19569639  0.23973686  0.52679236     0.16900
C726        C  0.30044602  0.27191112  0.53478237     0.29200
C727        C  0.31697771  0.25258299  0.54296417    -0.24700
C728        C  0.30310273  0.21426389  0.53913098    -0.24000
C729        C  0.27339817  0.19581187  0.52634162     0.40600
C730        C  0.25659149  0.21507569  0.51825256    -0.26400
O731        O  0.31382551  0.30897200  0.53920201    -0.58300
H732        H  0.34003054  0.26726265  0.55270164     0.16300
O733        O  0.25908025  0.15843307  0.52236355    -0.59800
H734        H  0.23308597  0.20031223  0.50872177     0.14700
H735        H  0.13979051  0.24424877  0.50542712     0.46600
H736        H  0.29751370  0.30805996  0.54922347     0.41900
H737        H  0.27335816  0.15836989  0.51174126     0.45400
H738        H  0.32705268  0.33608615  0.50448156     0.36900
C739        C  0.26574852  0.48282982  0.50002205    -0.27400
C740        C  0.24706488  0.48796658  0.51450661     0.02200
C741        C  0.21194864  0.45652497  0.52048475     0.30300
C742        C  0.19481552  0.42204856  0.51124976    -0.19200
C743        C  0.21269562  0.41764432  0.49632107    -0.28600
C744        C  0.24986974  0.44778140  0.49151413     0.44400
C745        C  0.26358570  0.02576574  0.52209463     0.05500
O746        O  0.19394946  0.45907792  0.53530591    -0.57100
H747        H  0.16714985  0.39894768  0.51566262     0.18500
O748        O  0.27116488  0.44342244  0.47852594    -0.63800
H749        H  0.29151208  0.00568403  0.49404517     0.16900
C750        C  0.30426824  0.04635632  0.52608843     0.29200
C751        C  0.32089876  0.08210925  0.53402813    -0.24700
C752        C  0.29731732  0.09706472  0.53899971    -0.24000
C753        C  0.25674205  0.07651182  0.53541514     0.40600
C754        C  0.24032023  0.04165695  0.52659645    -0.26400
O755        O  0.32789652  0.03136324  0.52281693    -0.58300
H756        H  0.35209543  0.09752514  0.53701706     0.16300
O757        O  0.23292271  0.09024340  0.54051079    -0.59800
H758        H  0.20920866  0.02689395  0.52341787     0.14700
H759        H  0.28288731  0.42938029  0.48396061     0.46600
H760        H  0.32549037  0.01610711  0.53325525     0.41900
H761        H  0.22189192  0.07807783  0.55186308     0.45400
H762        H  0.20831848  0.45559800  0.54515562     0.36900
C763        C  0.03177652  0.24216648  0.50158348    -0.27400
C764        C  0.02192486  0.26202193  0.51357824     0.02200
C765        C  0.04904850  0.30037958  0.51712411     0.30300
C766        C  0.08499435  0.31862529  0.50832465    -0.19200
C767        C  0.09421095  0.29920125  0.49581025    -0.28600
C768        C  0.06764884  0.26040321  0.49275948     0.44400
C769        C  0.48558623  0.24116033  0.52151388     0.05500
O770        O  0.04089493  0.31997934  0.52940432    -0.57100
H771        H  0.10503337  0.34832117  0.51085447     0.18500
O772        O  0.07610627  0.24037883  0.48083601    -0.63800
H773        H  0.01126443  0.21256814  0.49882871     0.16900
C774        C  0.45785645  0.25289110  0.51902519     0.29200
C775        C  0.42269126  0.23577101  0.52835549    -0.24700
C776        C  0.41474776  0.20699170  0.54027357    -0.24000
C777        C  0.44168270  0.19410530  0.54220949     0.40600
C778        C  0.47690936  0.21125955  0.53287514    -0.26400
O779        O  0.46506981  0.28131566  0.50760512    -0.58300
H780        H  0.40191085  0.24551641  0.52656613     0.16300
O781        O  0.43381789  0.16479923  0.55317149    -0.59800
H782        H  0.99482869  0.20295806  0.53561553     0.14700
H783        H  0.08137568  0.22307201  0.48782830     0.46600
H784        H  0.45635560  0.26873658  0.49598934     0.41900
H785        H  0.42181329  0.14188118  0.54558940     0.45400
H786        H  0.03405586  0.33650253  0.52264037     0.36900
C787        C  0.33484516  0.67335462  0.54113737     0.45700
H788        H  0.33452237  0.67289739  0.52660292    -0.03300
C789        C  0.33568438  0.67428701  0.57527218     0.45700
H790        H  0.33598676  0.67442198  0.58980990    -0.03300
C791        C  0.37643043  0.69172715  0.54925260    -0.17000
C792        C  0.31645495  0.69533123  0.54926390    -0.16800
C793        C  0.31265093  0.63382985  0.54933644    -0.17200
C794        C  0.37667600  0.69231280  0.56721069    -0.17100
C795        C  0.31679490  0.69561267  0.56722583    -0.16700
C796        C  0.31319879  0.63451487  0.56724428    -0.17000
C797        C  0.16979002  0.84021948  0.45882561     0.45700
H798        H  0.16931893  0.83886569  0.44429897    -0.03300
C799        C  0.17073383  0.84310438  0.49284234     0.45700
H800        H  0.17120420  0.84437509  0.50735756    -0.03300
C801        C  0.19315346  0.82379427  0.46736601    -0.17000
C802        C  0.18727045  0.88049186  0.46620024    -0.16800
C803        C  0.12888075  0.81814853  0.46672278    -0.17200
C804        C  0.19402100  0.82532439  0.48531769    -0.17100
C805        C  0.18902548  0.88233335  0.48422159    -0.16700
C806        C  0.12907965  0.81944921  0.48468681    -0.17000
O807        O  0.09984962  0.74988460  0.70026351    -0.80700
O808        O  0.19252049  0.88758790  0.65052978    -0.65300
O809        O  0.16516539  0.81258055  0.68558768    -1.11900
C810        C  0.12206334  0.88792981  0.71538117     1.06200
O811        O  0.22064164  0.93184952  0.67072698    -0.78600
O812        O  0.21450554  0.92346511  0.70579947    -0.66100
Ni813      Ni  0.13184035  0.76059146  0.67976247     1.34900
C814        C  0.21832168  0.89870414  0.71408079     0.85000
O815        O  0.20184762  0.82703592  0.65323974    -0.79100
O816        O  0.16139503  0.76563510  0.65894748    -0.89400
C817        C  0.21292772  0.92229151  0.65473088     0.84500
O818        O  0.09342163  0.76631909  0.66710040    -0.67600
O819        O  0.14090280  0.91331951  0.70403335    -0.86900
C820        C  0.09784206  0.79068484  0.65585482     0.85400
C821        C  0.18955924  0.79205974  0.65043672     1.06900
H822        H  0.12851783  0.86182881  0.67751315     0.38700
O823        O  0.15376007  0.86815741  0.68249255    -1.09500
O824        O  0.19497505  0.86341760  0.71206599    -0.66200
Ni825      Ni  0.14397644  0.83418860  0.70117061     1.26300
O826        O  0.13009364  0.82148249  0.65397938    -0.66400
O827        O  0.12264682  0.85704855  0.71630716    -0.78700
C828        C  0.11041553  0.76249150  0.71577370     0.84800
O829        O  0.13354535  0.79743983  0.71873818    -0.65900
Ni830      Ni  0.18014529  0.92096220  0.68737438     1.27400
Ni831      Ni  0.17830614  0.84871820  0.66745421     1.26100
H832        H  0.18925984  0.81543916  0.69044718     0.39300
C833        C  0.48804913  0.51092582  0.79134592     0.45700
H834        H  0.48909638  0.51127171  0.77682450    -0.03300
C835        C  0.48614003  0.51054729  0.82538677     0.45700
H836        H  0.48517592  0.51040437  0.83990673    -0.03300
C837        C  0.50500630  0.99035540  0.80018852    -0.17000
C838        C  0.51173842  0.55031679  0.79971472    -0.16800
C839        C  0.44563727  0.99442237  0.79997839    -0.17200
C840        C  0.50472930  0.98945520  0.81814597    -0.17100
C841        C  0.51105525  0.55028757  0.81765438    -0.16700
C842        C  0.44476524  0.99328547  0.81795303    -0.17000
C843        C  0.14807733  0.83923707  0.87610198     0.45700
H844        H  0.14740321  0.83903679  0.86158353    -0.03300
C845        C  0.15009630  0.84028396  0.91014168     0.45700
H846        H  0.15054078  0.84043878  0.92466067    -0.03300
C847        C  0.13129741  0.79969738  0.88426396    -0.17000
C848        C  0.18981052  0.86275074  0.88388905    -0.16800
C849        C  0.12478718  0.85622501  0.88438201    -0.17200
C850        C  0.13207798  0.80046538  0.90227096    -0.17100
C851        C  0.19091389  0.86305340  0.90191477    -0.16700
C852        C  0.12600884  0.85663899  0.90232959    -0.17000
C853        C  0.36440871  0.67552927  0.15990819     0.45700
H854        H  0.36730152  0.67520127  0.17436462    -0.03300
C855        C  0.35687789  0.67579864  0.12606219     0.45700
H856        H  0.35381096  0.67631139  0.11162543    -0.03300
C857        C  0.38289925  0.65557888  0.14996727    -0.17000
C858        C  0.32151310  0.65516756  0.15343776    -0.16800
C859        C  0.38352284  0.71552332  0.15211871    -0.17200
C860        C  0.37898757  0.65586995  0.13205880    -0.17100
C861        C  0.31752202  0.65554720  0.13560375    -0.16700
C862        C  0.37941660  0.71535093  0.13426214    -0.17000
C863        C  0.02089249  0.99936450  0.20833459     0.45700
H864        H  0.02029648  0.99876977  0.19382897    -0.03300
C865        C  0.01991619  0.99856562  0.24238502     0.45700
H866        H  0.01892292  0.99801483  0.25691185    -0.03300
C867        C  0.06442220  0.51977991  0.21717036    -0.17000
C868        C  0.00059649  0.51736471  0.21494754    -0.16800
C869        C  0.00327205  0.95964588  0.21606057    -0.17200
C870        C  0.06182434  0.52041418  0.23520218    -0.17100
C871        C  0.99878817  0.51754062  0.23280995    -0.16700
C872        C  0.00327550  0.95950060  0.23392230    -0.17000
O873        O  0.28520420  0.58145240  0.36509283    -0.80700
O874        O  0.37886337  0.72008333  0.31739680    -0.65300
O875        O  0.35230603  0.64637473  0.35297488    -1.11900
C876        C  0.30408816  0.71841041  0.38138389     1.06200
O877        O  0.40619973  0.76539178  0.33728934    -0.78600
O878        O  0.40062292  0.75435846  0.37205345    -0.66100
Ni879      Ni  0.32506394  0.59368896  0.34766204     1.34900
C880        C  0.40073552  0.72918035  0.38161382     0.85000
O881        O  0.39063795  0.66106185  0.32061912    -0.79100
O882        O  0.36307828  0.60127120  0.33021424    -0.89400
C883        C  0.39998116  0.75489064  0.32134285     0.84500
O884        O  0.28992674  0.59307409  0.33015301    -0.67600
O885        O  0.32694952  0.74536600  0.37140435    -0.86900
C886        C  0.29033426  0.61837159  0.32049126     0.85400
C887        C  0.38653819  0.62803387  0.32028048     1.06900
H888        H  0.31462583  0.69494570  0.34335144     0.38700
O889        O  0.33909924  0.70060198  0.34895588    -1.09500
O890        O  0.37429967  0.69455612  0.38052808    -0.66200
Ni891      Ni  0.32642239  0.66532722  0.36737590     1.26300
O892        O  0.31721824  0.65289236  0.32129187    -0.66400
O893        O  0.30107693  0.68587920  0.38130519    -0.78700
C894        C  0.29162441  0.59262235  0.38097490     0.84800
O895        O  0.31320462  0.62745198  0.38466494    -0.65900
Ni896      Ni  0.36574789  0.75325798  0.35429602     1.27400
Ni897      Ni  0.36519137  0.68177999  0.33455639     1.26100
H898        H  0.37670898  0.65183792  0.35859301     0.39300
O899        O  0.05272680  0.60210976  0.00469795    -0.80700
O900        O  0.49515860  0.95829820  0.04900508    -0.65300
O901        O  0.04113637  0.53306582  0.01731555    -1.11900
C902        C  0.42802939  0.96472376  0.98189770     1.06200
O903        O  0.46063854  0.91032868  0.03064486    -0.78600
O904        O  0.50043733  0.94032670  0.00044081    -0.66100
Ni905      Ni  0.06364133  0.58396002  0.02586256     1.34900
C906        C  0.00945810  0.95763247  0.98841652     0.85000
O907        O  0.06423303  0.51370123  0.04844138    -0.79100
O908        O  0.08015778  0.57408276  0.04809586    -0.89400
C909        C  0.47428657  0.92318866  0.04582394     0.84500
O910        O  0.01525590  0.57501662  0.03523541    -0.67600
O911        O  0.43505398  0.93945528  0.98731242    -0.86900
C912        C  0.49659462  0.55661441  0.04518238     0.85400
C913        C  0.08385196  0.54730817  0.05436601     1.06900
H914        H  0.45115541  0.98104039  0.02471174     0.38700
O915        O  0.47147402  0.97937280  0.01850993    -1.09500
O916        O  0.00595752  0.98662240  0.98586964    -0.66200
Ni917      Ni  0.49256038  0.51751988  0.00132666     1.26300
O918        O  0.49839201  0.52670235  0.04769219    -0.66400
O919        O  0.44635209  0.99818673  0.98807408    -0.78700
C920        C  0.03947326  0.58936323  0.98944275     0.84800
O921        O  0.01977190  0.55418169  0.98596764    -0.65900
Ni922      Ni  0.45080731  0.92909728  0.00946503     1.27400
Ni923      Ni  0.01510996  0.99445905  0.03196370     1.26100
H924        H  0.06134410  0.53041374  0.01145644     0.39300
C925        C  0.15941987  0.58884058  0.25772536    -0.27400
C926        C  0.16029080  0.56630123  0.27131889     0.02200
C927        C  0.12746991  0.52992944  0.27363076     0.30300
C928        C  0.09563563  0.51589794  0.26189703    -0.19200
C929        C  0.09554829  0.53763322  0.24781393    -0.28600
C930        C  0.12710342  0.57497583  0.24618633     0.44400
C931        C  0.19524798  0.58087288  0.28312857     0.05500
O932        O  0.12561690  0.50857193  0.28776630    -0.57100
H933        H  0.07108197  0.48759121  0.26372724     0.18500
O934        O  0.12681361  0.59797580  0.23329906    -0.63800
H935        H  0.18401952  0.61715712  0.25595549     0.16900
C936        C  0.21346768  0.55934197  0.28634565     0.29200
C937        C  0.24402108  0.57181429  0.29865587    -0.24700
C938        C  0.25832541  0.60660522  0.30739760    -0.24000
C939        C  0.24198829  0.62942502  0.30335000     0.40600
C940        C  0.21033423  0.61627442  0.29146463    -0.26400
O941        O  0.20184574  0.52613570  0.27742195    -0.58300
H942        H  0.25707317  0.55444691  0.30116831     0.16300
O943        O  0.25534190  0.66366938  0.31158873    -0.59800
H944        H  0.19702919  0.63343746  0.28902276     0.14700
H945        H  0.11613175  0.61278148  0.23888566     0.46600
H946        H  0.21656926  0.53368110  0.26630477     0.41900
H947        H  0.27474640  0.68260796  0.30349609     0.45400
H948        H  0.12466350  0.48563586  0.28285324     0.36900
C949        C  0.46043530  0.84857624  0.29806241    -0.27400
C950        C  0.44456281  0.83911836  0.28111437     0.02200
C951        C  0.41589146  0.80159820  0.27709427     0.30300
C952        C  0.40280487  0.77406441  0.29012073    -0.19200
C953        C  0.41751271  0.78362331  0.30737293    -0.28600
C954        C  0.44703054  0.82133770  0.31119092     0.44400
C955        C  0.45742040  0.86912457  0.26794613     0.05500
O956        O  0.40065082  0.79160840  0.26045555    -0.57100
H957        H  0.38021771  0.74541771  0.28680534     0.18500
O958        O  0.46330258  0.83192292  0.32764440    -0.63800
H959        H  0.48275453  0.87744388  0.30121399     0.16900
C960        C  0.43455627  0.88583692  0.26422712     0.29200
C961        C  0.44853354  0.91621200  0.25269239    -0.24700
C962        C  0.48542237  0.93050233  0.24494893    -0.24000
C963        C  0.01469144  0.91128478  0.24848152     0.40600
C964        C  0.49391444  0.88280522  0.25990355    -0.26400
O965        O  0.39887518  0.87308094  0.27206231    -0.58300
H966        H  0.43079588  0.92897224  0.24998009     0.16300
O967        O  0.05186043  0.92789536  0.24166845    -0.59800
H968        H  0.02109821  0.86938781  0.26265045     0.14700
H969        H  0.44962114  0.84401470  0.33319303     0.46600
H970        H  0.40479840  0.88834068  0.28296717     0.41900
H971        H  0.07022191  0.93561722  0.25181881     0.45400
H972        H  0.37672170  0.79386821  0.26042055     0.36900
C973        C  0.43594610  0.62273157  0.27849422    -0.27400
C974        C  0.43964572  0.59094872  0.28188374     0.02200
C975        C  0.43061160  0.57493394  0.29864728     0.30300
C976        C  0.41537658  0.58880735  0.31123949    -0.19200
C977        C  0.40894150  0.61886421  0.30754445    -0.28600
C978        C  0.42068350  0.63673141  0.29117334     0.44400
C979        C  0.45225730  0.57403270  0.26792321     0.05500
O980        O  0.43745371  0.54619774  0.30293267    -0.57100
H981        H  0.40778890  0.57533606  0.32389485     0.18500
O982        O  0.41607935  0.66689256  0.28716540    -0.63800
H983        H  0.44354234  0.63585525  0.26576634     0.16900
C984        C  0.42953431  0.53515904  0.26371358     0.29200
C985        C  0.44401242  0.51856185  0.25217385    -0.24700
C986        C  0.48012943  0.54052143  0.24397877    -0.24000
C987        C  0.50177998  0.57971071  0.24724416     0.40600
C988        C  0.48790702  0.59624850  0.25924114    -0.26400
O989        O  0.39335407  0.51300993  0.27102877    -0.58300
H990        H  0.42713781  0.48837432  0.24971463     0.16300
O991        O  0.03887664  0.59583225  0.24221994    -0.59800
H992        H  0.50564760  0.62617453  0.26222189     0.14700
H993        H  0.38969786  0.65572474  0.28157037     0.46600
H994        H  0.37456809  0.51544781  0.26320417     0.41900
H995        H  0.03625767  0.60871071  0.23179540     0.45400
H996        H  0.41122194  0.52383479  0.30509459     0.36900
C997        C  0.40225589  0.80765376  0.11275017    -0.27400
C998        C  0.42850644  0.81023343  0.09974131     0.02200
C999        C  0.44019226  0.78294071  0.09896263     0.30300
C1000       C  0.42403341  0.75250863  0.11044675    -0.19200
C1001       C  0.39684626  0.74918290  0.12305152    -0.28600
C1002       C  0.38628505  0.77721919  0.12438169     0.44400
C1003       C  0.44119610  0.83962071  0.08616662     0.05500
O1004       O  0.46809780  0.78641913  0.08725196    -0.57100
H1005       H  0.43293653  0.73144050  0.10958200     0.18500
O1006       O  0.36015149  0.77477932  0.13682038    -0.63800
H1007       H  0.39312084  0.82854912  0.11349858     0.16900
C1008       C  0.43274891  0.82903311  0.06843793     0.29200
C1009       C  0.44467103  0.85658477  0.05562081    -0.24700
C1010       C  0.46451422  0.89530975  0.06004871    -0.24000
C1011       C  0.47260048  0.90595819  0.07790098     0.40600
C1012       C  0.46093398  0.87813221  0.09078875    -0.26400
O1013       O  0.41214119  0.79165034  0.06348232    -0.58300
H1014       H  0.43767627  0.84729271  0.04210679     0.16300
O1015       O  0.01504784  0.93364762  0.07825670    -0.59800
H1016       H  0.46734503  0.88661446  0.10442166     0.14700
H1017       H  0.33643061  0.77057315  0.13027007     0.46600
H1018       H  0.38403645  0.78420008  0.06441427     0.41900
H1019       H  0.00729541  0.94917274  0.08533561     0.45400
H1020       H  0.45439198  0.76461476  0.07905672     0.36900
C1021       C  0.16460229  0.55233977  0.08388306    -0.27400
C1022       C  0.17355096  0.58413579  0.09433393     0.02200
C1023       C  0.14976768  0.60066389  0.09285106     0.30300
C1024       C  0.11965870  0.58723210  0.08028182    -0.19200
C1025       C  0.11198401  0.55673921  0.06915428    -0.28600
C1026       C  0.13392165  0.53845552  0.07144419     0.44400
C1027       C  0.20951107  0.60193804  0.10559935     0.05500
O1028       O  0.15648701  0.63079391  0.10327048    -0.57100
H1029       H  0.10271122  0.60131919  0.07899043     0.18500
O1030       O  0.12704967  0.50830392  0.06102091    -0.63800
H1031       H  0.18264028  0.53933025  0.08472912     0.16900
C1032       C  0.21796779  0.58076284  0.11749547     0.29200
C1033       C  0.25289381  0.59848114  0.12743358    -0.24700
C1034       C  0.27953349  0.63735588  0.12585810    -0.24000
C1035       C  0.27100652  0.65846061  0.11404305     0.40600
C1036       C  0.23648347  0.64076598  0.10395790    -0.26400
O1037       O  0.19184840  0.54302387  0.11980260    -0.58300
H1038       H  0.25957836  0.58151505  0.13600706     0.16300
O1039       O  0.29638900  0.69646279  0.11218851    -0.59800
H1040       H  0.23098156  0.65745920  0.09464661     0.14700
H1041       H  0.14535858  0.51939145  0.05109734     0.46600
H1042       H  0.20426181  0.52959583  0.11437196     0.41900
H1043       H  0.28619301  0.70880622  0.12006221     0.45400
H1044       H  0.14322664  0.61954641  0.11444439     0.36900
C1045       C  0.38544090  0.60103717  0.09319199    -0.27400
C1046       C  0.42355473  0.60703193  0.09523279     0.02200
C1047       C  0.44723302  0.62928652  0.10933183     0.30300
C1048       C  0.43275491  0.64559916  0.12106766    -0.19200
C1049       C  0.39420354  0.63890083  0.11930453    -0.28600
C1050       C  0.37050072  0.61632425  0.10521493     0.44400
C1051       C  0.43892620  0.59128659  0.08213121     0.05500
O1052       O  0.48509213  0.63651990  0.11127277    -0.57100
H1053       H  0.45176060  0.66362140  0.13154030     0.18500
O1054       O  0.33250168  0.60855284  0.10315659    -0.63800
H1055       H  0.36705284  0.58402774  0.08233596     0.16900
C1056       C  0.44907881  0.56405420  0.08670539     0.29200
C1057       C  0.46611173  0.55154675  0.07430067    -0.24700
C1058       C  0.47339645  0.56604048  0.05724128    -0.24000
C1059       C  0.46147409  0.59211248  0.05252230     0.40600
C1060       C  0.44413555  0.60426828  0.06491267    -0.26400
O1061       O  0.44318289  0.55009148  0.10335727    -0.58300
H1062       H  0.47495702  0.53152007  0.07825210     0.16300
O1063       O  0.96031497  0.59508904  0.03741333    -0.59800
H1064       H  0.92978632  0.61379959  0.06295709     0.14700
H1065       H  0.31658144  0.58623835  0.11056397     0.46600
H1066       H  0.41590341  0.52833209  0.10329103     0.41900
H1067       H  0.98284304  0.62137516  0.03730148     0.45400
H1068       H  0.48426125  0.62035959  0.12106330     0.36900
C1069       C  0.42442083  0.54070166  0.19327848    -0.27400
C1070       C  0.44910307  0.57508878  0.18497813     0.02200
C1071       C  0.49017778  0.59085674  0.18628151     0.30300
C1072       C  0.00506711  0.56987048  0.19690128    -0.19200
C1073       C  0.48126236  0.53876315  0.20452470    -0.28600
C1074       C  0.44025140  0.52255941  0.20303876     0.44400
C1075       C  0.43185961  0.59534023  0.17588277     0.05500
O1076       O  0.01176534  0.62247070  0.18075367    -0.57100
H1077       H  0.03640482  0.58529304  0.19936066     0.18500
O1078       O  0.41521883  0.99008192  0.21407872    -0.63800
H1079       H  0.39279569  0.52839486  0.19262860     0.16900
C1080       C  0.40221134  0.57720155  0.16301252     0.29200
C1081       C  0.38613357  0.59693931  0.15485511    -0.24700
C1082       C  0.39953665  0.63492810  0.15918416    -0.24000
C1083       C  0.42883703  0.65293528  0.17215297     0.40600
C1084       C  0.44461163  0.63310006  0.18046399    -0.26400
O1085       O  0.38994695  0.54073540  0.15783990    -0.58300
H1086       H  0.36325941  0.58257076  0.14501642     0.16300
O1087       O  0.44261650  0.69003889  0.17663069    -0.59800
H1088       H  0.46689556  0.64727829  0.19055805     0.14700
H1089       H  0.40283522  0.99656144  0.22371402     0.46600
H1090       H  0.36320154  0.52527138  0.16268778     0.41900
H1091       H  0.46708170  0.70460888  0.16986622     0.45400
H1092       H  0.01475912  0.61790558  0.16825259     0.36900
C1093       C  0.23148145  0.63167289  0.17983681    -0.27400
C1094       C  0.21731642  0.59347555  0.18389475     0.02200
C1095       C  0.24005678  0.57695858  0.17926627     0.30300
C1096       C  0.27549299  0.59829786  0.17030892    -0.19200
C1097       C  0.28793396  0.63552310  0.16536435    -0.28600
C1098       C  0.26617081  0.65244663  0.17044256     0.44400
C1099       C  0.17752456  0.57111745  0.19170696     0.05500
O1100       O  0.22624824  0.53925596  0.18200721    -0.57100
H1101       H  0.29206660  0.58502127  0.16624842     0.18500
O1102       O  0.27828039  0.68909991  0.16604098    -0.63800
H1103       H  0.21484677  0.64512692  0.18349005     0.16900
C1104       C  0.17041354  0.54860984  0.20663073     0.29200
C1105       C  0.13279454  0.52977753  0.21394813    -0.24700
C1106       C  0.10234719  0.53513309  0.20747763    -0.24000
C1107       C  0.10922205  0.55667765  0.19224290     0.40600
C1108       C  0.14622521  0.57380325  0.18437516    -0.26400
O1109       O  0.20024341  0.54604558  0.21464780    -0.58300
H1110       H  0.12796244  0.51211543  0.22520798     0.16300
O1111       O  0.08035375  0.56205031  0.18514230    -0.59800
H1112       H  0.15078607  0.59033546  0.17269984     0.14700
H1113       H  0.26669984  0.68751159  0.15428447     0.46600
H1114       H  0.21153043  0.56680593  0.22347596     0.41900
H1115       H  0.09079546  0.58971217  0.18572606     0.45400
H1116       H  0.24510011  0.53826386  0.19036258     0.36900
C1117       C  0.43179453  0.87594641  0.19133404    -0.27400
C1118       C  0.45489376  0.85886829  0.18927877     0.02200
C1119       C  0.49441455  0.87861534  0.19516743     0.30300
C1120       C  0.00971046  0.90685913  0.20338910    -0.19200
C1121       C  0.48627463  0.93040384  0.20565726    -0.28600
C1122       C  0.44706489  0.91114266  0.19972991     0.44400
C1123       C  0.43769901  0.82084999  0.18081889     0.05500
O1124       O  0.01510895  0.85359472  0.19466921    -0.57100
H1125       H  0.03945302  0.92013571  0.20853878     0.18500
O1126       O  0.42338949  0.92636713  0.20219244    -0.63800
H1127       H  0.40169035  0.86182001  0.18655699     0.16900
C1128       C  0.40049479  0.79073239  0.18564855     0.29200
C1129       C  0.38385821  0.75605627  0.17664342    -0.24700
C1130       C  0.40402112  0.75056230  0.16295716    -0.24000
C1131       C  0.44238674  0.77958703  0.15903914     0.40600
C1132       C  0.45846318  0.81459669  0.16760005    -0.26400
O1133       O  0.37992650  0.79496923  0.19901943    -0.58300
H1134       H  0.35464068  0.73375509  0.18003223     0.16300
O1135       O  0.46423959  0.77433595  0.14663792    -0.59800
H1136       H  0.48706758  0.83714072  0.16364915     0.14700
H1137       H  0.41184346  0.91780675  0.21392898     0.46600
H1138       H  0.39048224  0.78995021  0.20984870     0.41900
H1139       H  0.47459521  0.75956029  0.15250221     0.45400
H1140       H  0.00679527  0.83671055  0.20493574     0.36900
C1141       C  0.34740677  0.90558204  0.94885071    -0.27400
C1142       C  0.33349053  0.92985296  0.94427054     0.02200
C1143       C  0.35261225  0.96694321  0.95126753     0.30300
C1144       C  0.38415197  0.97859652  0.96311874    -0.19200
C1145       C  0.39751004  0.95384684  0.96797634    -0.28600
C1146       C  0.37942256  0.91737557  0.96016883     0.44400
C1147       C  0.29810327  0.91510979  0.93275824     0.05500
O1148       O  0.34042671  0.99185346  0.94682034    -0.57100
H1149       H  0.39763188  0.00679055  0.96875011     0.18500
O1150       O  0.39186857  0.89228441  0.96383478    -0.63800
H1151       H  0.33281590  0.87676406  0.94392863     0.16900
C1152       C  0.29464543  0.89412650  0.91748778     0.29200
C1153       C  0.25941429  0.87670771  0.90791340    -0.24700
C1154       C  0.22767634  0.88127185  0.91271097    -0.24000
C1155       C  0.23128097  0.90278525  0.92780970     0.40600
C1156       C  0.26618416  0.91924790  0.93776069    -0.26400
O1157       O  0.32605109  0.89153658  0.91152306    -0.58300
H1158       H  0.25705820  0.85955641  0.89662901     0.16300
O1159       O  0.20146416  0.90901733  0.93260632    -0.59800
H1160       H  0.26800090  0.93477456  0.94959104     0.14700
H1161       H  0.41258361  0.89756458  0.95515215     0.46600
H1162       H  0.31823928  0.86450458  0.91251812     0.41900
H1163       H  0.19079704  0.89470092  0.94355837     0.45400
H1164       H  0.35276803  0.00225178  0.93538867     0.36900
C1165       C  0.06238900  0.63894327  0.94538145    -0.27400
C1166       C  0.07266415  0.67576860  0.95059811     0.02200
C1167       C  0.06912598  0.68315539  0.96825724     0.30300
C1168       C  0.05684946  0.65431239  0.98053240    -0.19200
C1169       C  0.04809536  0.61767824  0.97556627    -0.28600
C1170       C  0.05035119  0.60999247  0.95772255     0.44400
C1171       C  0.08825359  0.70671656  0.93770428     0.05500
O1172       O  0.07694058  0.71839000  0.97355660    -0.57100
H1173       H  0.05467173  0.66088519  0.99408608     0.18500
O1174       O  0.04211349  0.57475864  0.95225731    -0.63800
H1175       H  0.06487403  0.63293678  0.93177832     0.16900
C1176       C  0.12725640  0.73695789  0.93908442     0.29200
C1177       C  0.14118147  0.76676049  0.92723569    -0.24700
C1178       C  0.11679224  0.76693643  0.91380431    -0.24000
C1179       C  0.07772351  0.73667213  0.91240313     0.40600
C1180       C  0.06382729  0.70668431  0.92425600    -0.26400
O1181       O  0.15185801  0.73784506  0.95211402    -0.58300
H1182       H  0.17117462  0.78997313  0.92857456     0.16300
O1183       O  0.05227864  0.73746773  0.90028145    -0.59800
H1184       H  0.03357996  0.68387005  0.92325368     0.14700
H1185       H  0.06734674  0.57496788  0.95335416     0.46600
H1186       H  0.16288521  0.72240330  0.94759369     0.41900
H1187       H  0.04507961  0.71572494  0.89227741     0.45400
H1188       H  0.10269779  0.72986133  0.97974922     0.36900
C1189       C  0.06403726  0.86708638  0.93688050    -0.27400
C1190       C  0.07916089  0.90633061  0.93705191     0.02200
C1191       C  0.10904518  0.92913143  0.92526882     0.30300
C1192       C  0.12340076  0.91250404  0.91360499    -0.19200
C1193       C  0.10849760  0.87338770  0.91367610    -0.28600
C1194       C  0.07870979  0.85063459  0.92539138     0.44400
C1195       C  0.06460729  0.92285513  0.95024748     0.05500
O1196       O  0.12616890  0.96775635  0.92592429    -0.57100
H1197       H  0.14706636  0.93026363  0.90487771     0.18500
O1198       O  0.06425361  0.81237348  0.92586667    -0.63800
H1199       H  0.04105096  0.84917928  0.94585855     0.16900
C1200       C  0.04881108  0.94569212  0.94540913     0.29200
C1201       C  0.03306485  0.95878737  0.95817270    -0.24700
C1202       C  0.03173675  0.94849108  0.97577120    -0.24000
C1203       C  0.04837775  0.92636287  0.98062466     0.40600
C1204       C  0.06464548  0.91382119  0.96792233    -0.26400
O1205       O  0.04695302  0.95391747  0.92818650    -0.58300
H1206       H  0.53066461  0.98469965  0.95443655     0.16000
O1207       O  0.04819875  0.91614197  0.99769104    -0.59800
H1208       H  0.07685888  0.89642251  0.97185679     0.14700
H1209       H  0.03930026  0.80086712  0.91903746     0.46600
H1210       H  0.53260332  0.94227170  0.92338955     0.41900
H1211       H  0.07231920  0.93731085  0.00307387     0.45400
H1212       H  0.11880268  0.97482810  0.91473450     0.36900
C1213       C  0.04870280  0.87982135  0.86730827    -0.27400
C1214       C  0.07096399  0.90869950  0.85545197     0.02200
C1215       C  0.11017069  0.91837026  0.85229014     0.30300
C1216       C  0.12700990  0.90038777  0.86147525    -0.19200
C1217       C  0.10517899  0.87255849  0.87382898    -0.28600
C1218       C  0.06536148  0.86152441  0.87631162     0.44400
C1219       C  0.05312098  0.92871857  0.84656873     0.05500
O1220       O  0.13232029  0.94549783  0.84031421    -0.57100
H1221       H  0.15748769  0.90880603  0.85923653     0.18500
O1222       O  0.04242630  0.83295591  0.88752762    -0.63800
H1223       H  0.01838444  0.87172798  0.86973413     0.16900
C1224       C  0.01885525  0.90881099  0.83617459     0.29200
C1225       C  0.50324455  0.92993538  0.82633159    -0.24700
C1226       C  0.02047312  0.96768211  0.82947861    -0.24000
C1227       C  0.05415346  0.98753246  0.84015867     0.40600
C1228       C  0.07041573  0.96809232  0.84852747    -0.26400
O1229       O  0.50312066  0.87250579  0.83197338    -0.58300
H1230       H  0.47746510  0.91431660  0.81802166     0.16300
O1231       O  0.06068833  0.52324739  0.84815226    -0.59800
H1232       H  0.09670011  0.98379238  0.85652569     0.14700
H1233       H  0.03558748  0.80925051  0.88112362     0.46600
H1234       H  0.51704911  0.86960423  0.82185274     0.41900
H1235       H  0.04636708  0.52292959  0.85883052     0.45400
H1236       H  0.12496157  0.93224181  0.82881119     0.36900
C1237       C  0.08980255  0.64533736  0.83773304    -0.27400
C1238       C  0.06708030  0.65656787  0.84733803     0.02200
C1239       C  0.02623442  0.63153639  0.84865481     0.30300
C1240       C  0.00858138  0.59627440  0.84011859    -0.19200
C1241       C  0.03114574  0.58568634  0.83004898    -0.28600
C1242       C  0.07211407  0.61019071  0.82912843     0.44400
C1243       C  0.08600488  0.69446323  0.85586066     0.05500
O1244       O  0.00323655  0.64154112  0.85804377    -0.57100
H1245       H  0.47703767  0.57553819  0.84036861     0.18500
O1246       O  0.09492055  0.60042825  0.81943918    -0.63800
H1247       H  0.12120929  0.66422607  0.83658908     0.16900
C1248       C  0.11563030  0.70487073  0.86868522     0.29200
C1249       C  0.13109276  0.73972074  0.87743448    -0.24700
C1250       C  0.11745840  0.76469718  0.87357222    -0.24000
C1251       C  0.08928214  0.75512229  0.86013167     0.40600
C1252       C  0.07354503  0.72008481  0.85148362    -0.26400
O1253       O  0.12796665  0.68023923  0.87346284    -0.58300
H1254       H  0.15325344  0.74692857  0.88754456     0.16300
O1255       O  0.07487750  0.77857114  0.85623816    -0.59800
H1256       H  0.05102631  0.71258926  0.84151666     0.14700
H1257       H  0.10270101  0.58652168  0.82757922     0.46600
H1258       H  0.15351079  0.68942611  0.86756443     0.41900
H1259       H  0.08769579  0.79097980  0.84515836     0.45400
H1260       H  0.00659928  0.63650158  0.87042031     0.36900
C1261       C  0.34648895  0.97335932  0.83590818    -0.27400
C1262       C  0.33582492  0.94113964  0.84600674     0.02200
C1263       C  0.36210302  0.92734399  0.84747957     0.30300
C1264       C  0.39812036  0.94541271  0.83877127    -0.19200
C1265       C  0.40810838  0.97681569  0.82824034    -0.28600
C1266       C  0.38228326  0.99111993  0.82702493     0.44400
C1267       C  0.29721441  0.92195687  0.85488341     0.05500
O1268       O  0.35266739  0.89600089  0.85726952    -0.57100
H1269       H  0.41777693  0.93416796  0.83977588     0.18500
O1270       O  0.39150146  0.02209858  0.81699149    -0.63800
H1271       H  0.32665435  0.98434469  0.83466827     0.16900
C1272       C  0.28730607  0.94132630  0.86726117     0.29200
C1273       C  0.25135275  0.92228972  0.87596993    -0.24700
C1274       C  0.22512548  0.88366258  0.87277736    -0.24000
C1275       C  0.23440838  0.86460411  0.85999356     0.40600
C1276       C  0.27031021  0.88370768  0.85121348    -0.26400
O1277       O  0.31315514  0.97850381  0.87136781    -0.58300
H1278       H  0.24451330  0.93737053  0.88572464     0.16300
O1279       O  0.20986211  0.82670609  0.85687185    -0.59800
H1280       H  0.27744758  0.86846738  0.84167275     0.14700
H1281       H  0.41051630  0.04418573  0.82414087     0.46600
H1282       H  0.32885409  0.97786160  0.88142882     0.41900
H1283       H  0.19532734  0.82514587  0.84595756     0.45400
H1284       H  0.36111466  0.90567062  0.86938287     0.36900
C1285       C  0.29461034  0.95701544  0.74888690    -0.27400
C1286       C  0.31422875  0.93664605  0.75113541     0.02200
C1287       C  0.30153298  0.90307441  0.74132184     0.30300
C1288       C  0.26995201  0.89064089  0.72945661    -0.19200
C1289       C  0.25112990  0.91169947  0.72688355    -0.28600
C1290       C  0.26351801  0.94494710  0.73688412     0.44400
C1291       C  0.34801098  0.95112055  0.76362970     0.05500
O1292       O  0.32019574  0.88257182  0.74297205    -0.57100
H1293       H  0.26074102  0.86492522  0.72195438     0.18500
O1294       O  0.24501293  0.96560778  0.73525742    -0.63800
H1295       H  0.30330042  0.98239152  0.75657893     0.16900
C1296       C  0.37893395  0.98898508  0.76295690     0.29200
C1297       C  0.40980050  0.00267963  0.77517113    -0.24700
C1298       C  0.41082192  0.97912029  0.78812006    -0.24000
C1299       C  0.38055840  0.94098259  0.78856504     0.40600
C1300       C  0.34922623  0.92738228  0.77651789    -0.26400
O1301       O  0.37950333  0.01277364  0.75026102    -0.58300
H1302       H  0.43760310  0.53250629  0.77197804     0.16300
O1303       O  0.38165331  0.91657618  0.80044710    -0.59800
H1304       H  0.32577720  0.89821364  0.77727099     0.14700
H1305       H  0.22329272  0.95458290  0.74379748     0.46600
H1306       H  0.39690203  0.50862871  0.73749543     0.41900
H1307       H  0.39735971  0.90666879  0.79487041     0.45400
H1308       H  0.34300909  0.89477929  0.73503865     0.36900
C1309       C  0.04759905  0.67322327  0.74133201    -0.27400
C1310       C  0.07100633  0.67957602  0.75623607     0.02200
C1311       C  0.10577854  0.71452255  0.75860892     0.30300
C1312       C  0.11751051  0.74230171  0.74573516    -0.19200
C1313       C  0.09489998  0.73541808  0.73037691    -0.28600
C1314       C  0.05917316  0.70076785  0.72847150     0.44400
C1315       C  0.05894108  0.64881885  0.76889927     0.05500
O1316       O  0.12915130  0.72117789  0.77311716    -0.57100
H1317       H  0.14510405  0.76858173  0.74743192     0.18500
O1318       O  0.03567736  0.69312223  0.71391153    -0.63800
H1319       H  0.02055488  0.64645178  0.73952593     0.16900
C1320       C  0.03159493  0.64316159  0.78193474     0.29200
C1321       C  0.51646266  0.61118583  0.79125164    -0.24700
C1322       C  0.02998124  0.58528503  0.79057072    -0.24000
C1323       C  0.05762985  0.59116223  0.77759760     0.40600
C1324       C  0.07199198  0.62286510  0.76686209    -0.26400
O1325       O  0.51710533  0.66762441  0.78270371    -0.58300
H1326       H  0.49485066  0.60662658  0.80107849     0.16300
O1327       O  0.07029450  0.56580539  0.77513692    -0.59800
H1328       H  0.09266911  0.62680260  0.75666678     0.14700
H1329       H  0.01857331  0.70380610  0.71657805     0.46600
H1330       H  0.49359080  0.65793798  0.77496468     0.41900
H1331       H  0.09205663  0.57332268  0.78372165     0.45400
H1332       H  0.11863011  0.73118206  0.78211220     0.36900
C1333       C  0.06546021  0.92888265  0.73707184    -0.27400
C1334       C  0.06393317  0.91715483  0.75434809     0.02200
C1335       C  0.07885624  0.89337427  0.75858287     0.30300
C1336       C  0.09606902  0.88236286  0.74556408    -0.19200
C1337       C  0.09932932  0.89560217  0.72838380    -0.28600
C1338       C  0.08304130  0.91840673  0.72413495     0.44400
C1339       C  0.04816859  0.93166327  0.76778954     0.05500
O1340       O  0.07645504  0.88064504  0.77533934    -0.57100
H1341       H  0.10825085  0.86470574  0.74906800     0.18500
O1342       O  0.08471768  0.93118673  0.70743936    -0.63800
H1343       H  0.05387315  0.94711788  0.73370994     0.16900
C1344       C  0.07330211  0.95845665  0.78032557     0.29200
C1345       C  0.05887662  0.97582879  0.79143002    -0.24700
C1346       C  0.01959267  0.96695222  0.79004361    -0.24000
C1347       C  0.99429917  0.93955893  0.77777776     0.40600
C1348       C  0.00865481  0.92203727  0.76676164    -0.26400
O1349       O  0.11457068  0.46739761  0.78400099    -0.58300
H1350       H  0.07989477  0.49516022  0.80320601     0.16300
O1351       O  0.95537905  0.92931826  0.77668139    -0.59800
H1352       H  0.98916458  0.90152270  0.75710475     0.14700
H1353       H  0.06124923  0.91074034  0.70131876     0.46600
H1354       H  0.13039863  0.49041863  0.77699188     0.41900
H1355       H  0.45915290  0.95276724  0.76211354     0.45400
H1356       H  0.10315497  0.89642258  0.78047678     0.36900
C1357       C  0.20607724  0.74828636  0.44471866    -0.27400
C1358       C  0.23626763  0.77022916  0.43299986     0.02200
C1359       C  0.25406401  0.80991437  0.43367570     0.30300
C1360       C  0.24066623  0.82698480  0.44545280    -0.19200
C1361       C  0.20956241  0.80506894  0.45661877    -0.28600
C1362       C  0.19289084  0.76555453  0.45661358     0.44400
C1363       C  0.24850061  0.75199562  0.41964965     0.05500
O1364       O  0.28515466  0.83222172  0.42309438    -0.57100
H1365       H  0.25474402  0.85745723  0.44590996     0.18500
O1366       O  0.16236133  0.74358704  0.46750495    -0.63800
H1367       H  0.19200914  0.71774915  0.44431442     0.16900
C1368       C  0.26274670  0.72781419  0.42432690     0.29200
C1369       C  0.27873771  0.71497633  0.41150840    -0.24700
C1370       C  0.28099921  0.72633123  0.39404634    -0.24000
C1371       C  0.26473693  0.74879106  0.38928154     0.40600
C1372       C  0.24817552  0.76096633  0.40199768    -0.26400
O1373       O  0.26395410  0.71902312  0.44151796    -0.58300
H1374       H  0.29142056  0.69794948  0.41539524     0.16300
O1375       O  0.26498068  0.75902648  0.37220334    -0.59800
H1376       H  0.23622360  0.77862596  0.39814053     0.14700
H1377       H  0.17433320  0.73679534  0.47724247     0.46600
H1378       H  0.24111527  0.69319526  0.44290487     0.41900
H1379       H  0.28668062  0.78564981  0.37156313     0.45400
H1380       H  0.27444236  0.84211111  0.41411726     0.36900
C1381       C  0.05944618  0.76040503  0.42966975    -0.27400
C1382       C  0.02952962  0.76911215  0.43148747     0.02200
C1383       C  0.03092735  0.79207183  0.44556181     0.30300
C1384       C  0.06271471  0.80692535  0.45736455    -0.19200
C1385       C  0.09326046  0.79897952  0.45532455    -0.28600
C1386       C  0.09102072  0.77492384  0.44153382     0.44400
C1387       C  0.99824743  0.75604871  0.41802628     0.05500
O1388       O  0.50841358  0.81457129  0.44839201    -0.57100
H1389       H  0.06418923  0.82572749  0.46775298     0.18500
O1390       O  0.11979074  0.76576970  0.43942079    -0.63800
H1391       H  0.05849557  0.74261322  0.41889971     0.16900
C1392       C  0.49581729  0.79051757  0.40676336     0.29200
C1393       C  0.46489829  0.77841603  0.39467093    -0.24700
C1394       C  0.43314431  0.74096367  0.39466687    -0.24000
C1395       C  0.43290751  0.71571924  0.40731321     0.40600
C1396       C  0.46395884  0.72801256  0.41940080    -0.26400
O1397       O  0.04425547  0.79930560  0.39711633    -0.58300
H1398       H  0.46605846  0.79848056  0.38518338     0.16300
O1399       O  0.40217079  0.67927618  0.40831357    -0.59800
H1400       H  0.46350230  0.70841876  0.42899139     0.14700
H1401       H  0.10836456  0.73969950  0.44391709     0.46600
H1402       H  0.05602861  0.78560053  0.39138029     0.41900
H1403       H  0.41051283  0.66386161  0.40150996     0.45400
H1404       H  0.52042001  0.83989792  0.44299825     0.36900
C1405       C  0.27244912  0.54309138  0.42489330    -0.27400
C1406       C  0.23489364  0.00378141  0.41760480     0.02200
C1407       C  0.22587045  0.49961370  0.40337056     0.30300
C1408       C  0.24130679  0.52826246  0.39090212    -0.19200
C1409       C  0.27303807  0.56440577  0.39508936    -0.28600
C1410       C  0.28799953  0.57189634  0.41242935     0.44400
C1411       C  0.22265480  0.97253686  0.43016934     0.05500
O1412       O  0.19743365  0.96004247  0.39430982    -0.57100
H1413       H  0.22889619  0.52182862  0.37778546     0.18500
O1414       O  0.31943854  0.60640106  0.41706945    -0.63800
H1415       H  0.28522200  0.54871900  0.43794211     0.16900
C1416       C  0.23409852  0.94537360  0.42775709     0.29200
C1417       C  0.22255574  0.91604974  0.43970010    -0.24700
C1418       C  0.19964632  0.91309324  0.45422292    -0.24000
C1419       C  0.18784027  0.94015695  0.45658536     0.40600
C1420       C  0.19967265  0.96981009  0.44464044    -0.26400
O1421       O  0.26873599  0.45429213  0.41800705    -0.58300
H1422       H  0.23185645  0.89565642  0.43758936     0.16300
O1423       O  0.16296834  0.93658786  0.46987631    -0.59800
H1424       H  0.19029093  0.99033007  0.44649348     0.14700
H1425       H  0.30778689  0.62075455  0.42224768     0.46600
H1426       H  0.25279582  0.43559370  0.40875654     0.41900
H1427       H  0.17788209  0.95946095  0.47736455     0.45400
H1428       H  0.21232603  0.95264852  0.38638215     0.36900
C1429       C  0.30327963  0.75499903  0.60180471    -0.27400
C1430       C  0.26337964  0.74329690  0.59952312     0.02200
C1431       C  0.24142007  0.71688516  0.58625868     0.30300
C1432       C  0.25935379  0.70215037  0.57559589    -0.19200
C1433       C  0.29906367  0.71312422  0.57812626    -0.28600
C1434       C  0.32107199  0.73975880  0.59133222     0.44400
C1435       C  0.24408395  0.75609007  0.61208319     0.05500
O1436       O  0.20247972  0.70550689  0.58362327    -0.57100
H1437       H  0.24195730  0.68140013  0.56559737     0.18500
O1438       O  0.36014061  0.75164747  0.59384239    -0.63800
H1439       H  0.32033787  0.77515444  0.61207035     0.16900
C1440       C  0.21801022  0.73074155  0.62438801     0.29200
C1441       C  0.20042999  0.74290951  0.63656360    -0.24700
C1442       C  0.20855022  0.78057238  0.63688887    -0.24000
C1443       C  0.23466552  0.80599465  0.62439996     0.40600
C1444       C  0.25246311  0.79368443  0.61221503    -0.26400
O1445       O  0.20987338  0.69399582  0.62474925    -0.58300
H1446       H  0.18073794  0.72267251  0.64597177     0.16300
O1447       O  0.24311380  0.84281671  0.62394962    -0.59800
H1448       H  0.27265998  0.81342297  0.60277936     0.14700
H1449       H  0.36128673  0.73811053  0.60433982     0.46600
H1450       H  0.23088741  0.69447906  0.63217627     0.41900
H1451       H  0.22242112  0.84249815  0.61634674     0.45400
H1452       H  0.18767446  0.68022332  0.58902940     0.36900
C1453       C  0.46824860  0.76359817  0.59196597    -0.27400
C1454       C  0.47630276  0.73965750  0.60206206     0.02200
C1455       C  0.45301852  0.70019619  0.59957832     0.30300
C1456       C  0.42073213  0.68525596  0.58815543    -0.19200
C1457       C  0.41244033  0.70911866  0.57831178    -0.28600
C1458       C  0.43687446  0.74850642  0.57991559     0.44400
C1459       C  0.00204734  0.75664379  0.61937424     0.05500
O1460       O  0.46134759  0.67596271  0.60841833    -0.57100
H1461       H  0.40221375  0.65490290  0.58689681     0.18500
O1462       O  0.42885996  0.77234135  0.57054354    -0.63800
H1463       H  0.48552352  0.79396131  0.59378283     0.16900
C1464       C  0.04112932  0.78088728  0.61415175     0.29200
C1465       C  0.07198550  0.79340697  0.62638976    -0.24700
C1466       C  0.06455058  0.78186406  0.64388736    -0.24000
C1467       C  0.02530620  0.75928739  0.64928546     0.40600
C1468       C  0.49806890  0.74096142  0.63284380    -0.26400
O1469       O  0.04971956  0.79014283  0.59689391    -0.58300
H1470       H  0.10195998  0.81060416  0.62196349     0.16300
O1471       O  0.01674844  0.74838857  0.66637602    -0.59800
H1472       H  0.46823483  0.71951555  0.63593671     0.14700
H1473       H  0.44723406  0.78064194  0.56057304     0.46600
H1474       H  0.05609004  0.81679926  0.59607285     0.41900
H1475       H  0.01492038  0.76910809  0.67224818     0.45400
H1476       H  0.48040899  0.67334947  0.60097954     0.36900
C1477       C  0.29742245  0.54747482  0.59136611    -0.27400
C1478       C  0.26217162  0.53692864  0.60004635     0.02200
C1479       C  0.24332145  0.55808055  0.59755569     0.30300
C1480       C  0.26019195  0.58976702  0.58676045    -0.19200
C1481       C  0.29548772  0.60033591  0.57816191    -0.28600
C1482       C  0.31412022  0.57897963  0.58041501     0.44400
C1483       C  0.24752470  0.50630942  0.61302763     0.05500
O1484       O  0.20882280  0.54837182  0.60589931    -0.57100
H1485       H  0.24579823  0.60621913  0.58511665     0.18500
O1486       O  0.34972885  0.59010173  0.57278619    -0.63800
H1487       H  0.31266957  0.53197033  0.59353181     0.16900
C1488       C  0.24004472  0.96910748  0.61031568     0.29200
C1489       C  0.22776870  0.94183090  0.62344442    -0.24700
C1490       C  0.22744381  0.95173819  0.64107706    -0.24000
C1491       C  0.23914618  0.98965322  0.64533491     0.40600
C1492       C  0.24781045  0.51549859  0.63069746    -0.26400
O1493       O  0.23945173  0.95856407  0.59320017    -0.58300
H1494       H  0.21852293  0.91289534  0.61980472     0.16300
O1495       O  0.23861578  0.00068185  0.66226469    -0.59800
H1496       H  0.25784406  0.54447962  0.63459783     0.14700
H1497       H  0.34568037  0.56857532  0.56526983     0.46600
H1498       H  0.26469734  0.95910809  0.59155201     0.41900
H1499       H  0.21220171  0.99775015  0.66372278     0.45400
H1500       H  0.18774397  0.53086151  0.59769824     0.36900
C1501       C  0.21516999  0.76961956  0.51903760    -0.27400
C1502       C  0.25239887  0.77678464  0.51382680     0.02200
C1503       C  0.27168824  0.80238377  0.50026096     0.30300
C1504       C  0.25331788  0.81967512  0.49180685    -0.19200
C1505       C  0.21507916  0.81096479  0.49629638    -0.28600
C1506       C  0.19650611  0.78658582  0.51041786     0.44400
C1507       C  0.27025591  0.75642988  0.52221905     0.05500
O1508       O  0.30803628  0.80984969  0.49484752    -0.57100
H1509       H  0.26867300  0.83926240  0.48136791     0.18500
O1510       O  0.15971577  0.77825466  0.51555960    -0.63800
H1511       H  0.20024025  0.75025226  0.52962036     0.16900
C1512       C  0.30474731  0.77582030  0.53247376     0.29200
C1513       C  0.32036169  0.75573218  0.54071073    -0.24700
C1514       C  0.30205238  0.71631437  0.53877684    -0.24000
C1515       C  0.26833387  0.69709068  0.52808050     0.40600
C1516       C  0.25235592  0.71709291  0.52004849    -0.26400
O1517       O  0.32287760  0.81424917  0.53479570    -0.58300
H1518       H  0.34636415  0.77080405  0.54894536     0.16300
O1519       O  0.24951845  0.65855945  0.52622186    -0.59800
H1520       H  0.22582374  0.70188519  0.51215423     0.14700
H1521       H  0.14166007  0.75242839  0.51096557     0.46600
H1522       H  0.31137495  0.81798945  0.54559541     0.41900
H1523       H  0.26161350  0.65391050  0.51587511     0.45400
H1524       H  0.30271969  0.79121026  0.48534575     0.36900
C1525       C  0.26385969  0.98273196  0.49866536    -0.27400
C1526       C  0.24530052  0.98810342  0.51312678     0.02200
C1527       C  0.20935919  0.95733919  0.51878408     0.30300
C1528       C  0.19170465  0.92301471  0.50945338    -0.19200
C1529       C  0.20960960  0.91824039  0.49462269    -0.28600
C1530       C  0.24706648  0.94792162  0.48986585     0.44400
C1531       C  0.26423169  0.52608280  0.52307263     0.05500
O1532       O  0.19116764  0.96040289  0.53342708    -0.57100
H1533       H  0.16368813  0.90029245  0.51374581     0.18500
O1534       O  0.26776695  0.94326653  0.47668834    -0.63800
H1535       H  0.29273832  0.50613954  0.49508341     0.16900
C1536       C  0.30521655  0.54911478  0.52601653     0.29200
C1537       C  0.32061429  0.58524018  0.53342370    -0.24700
C1538       C  0.29575500  0.59826070  0.53904011    -0.24000
C1539       C  0.25497118  0.57538009  0.53653125     0.40600
C1540       C  0.23958112  0.54012692  0.52812626    -0.26400
O1541       O  0.33049944  0.53623181  0.52228908    -0.58300
H1542       H  0.35202479  0.60242217  0.53564394     0.16300
O1543       O  0.23000210  0.58735141  0.54217560    -0.59800
H1544       H  0.20819719  0.52368780  0.52567886     0.14700
H1545       H  0.27944394  0.92905345  0.48198549     0.46600
H1546       H  0.32997068  0.52166845  0.53270351     0.41900
H1547       H  0.21827173  0.57315165  0.55304682     0.45400
H1548       H  0.20426945  0.95561457  0.54339824     0.36900
C1549       C  0.03238722  0.74139755  0.50252791    -0.27400
C1550       C  0.02239830  0.76188853  0.51408105     0.02200
C1551       C  0.04856511  0.80080642  0.51664889     0.30300
C1552       C  0.08376933  0.81894390  0.50737199    -0.19200
C1553       C  0.09317043  0.79884000  0.49535578    -0.28600
C1554       C  0.06750628  0.75958428  0.49318526     0.44400
C1555       C  0.48344792  0.74216275  0.51988401     0.05500
O1556       O  0.04021090  0.82108902  0.52846275    -0.57100
H1557       H  0.10305829  0.84901347  0.50914979     0.18500
O1558       O  0.07601663  0.73891832  0.48168186    -0.63800
H1559       H  0.01252149  0.71138015  0.50050820     0.16900
C1560       C  0.45546835  0.75357360  0.51731012     0.29200
C1561       C  0.42025909  0.73626346  0.52664218    -0.24700
C1562       C  0.41243547  0.70744703  0.53853585    -0.24000
C1563       C  0.43939492  0.69457561  0.54034705     0.40600
C1564       C  0.47473474  0.71210187  0.53114150    -0.26400
O1565       O  0.46239009  0.78175151  0.50579041    -0.58300
H1566       H  0.39941788  0.74595240  0.52491026     0.16300
O1567       O  0.43151193  0.66499263  0.55112277    -0.59800
H1568       H  0.99791809  0.70516309  0.53737099     0.14700
H1569       H  0.09279954  0.73163441  0.48835478     0.46600
H1570       H  0.45451759  0.76911925  0.49415526     0.41900
H1571       H  0.42185988  0.64263347  0.54327046     0.45400
H1572       H  0.03286647  0.83678008  0.52132214     0.36900
C1573       C  0.83170700  0.17090425  0.53992938     0.45700
H1574       H  0.83300661  0.17205851  0.52541929    -0.03300
C1575       C  0.82881656  0.16799949  0.57397621     0.45700
H1576       H  0.82744436  0.16651117  0.58848705    -0.03300
C1577       C  0.87250715  0.18862571  0.54896908    -0.17000
C1578       C  0.81212553  0.19179062  0.54813051    -0.16800
C1579       C  0.80876512  0.13042452  0.54712896    -0.17200
C1580       C  0.87070471  0.18721790  0.56692534    -0.17100
C1581       C  0.81079806  0.19019308  0.56606333    -0.16700
C1582       C  0.80749188  0.12916385  0.56500286    -0.17000
C1583       C  0.67118251  0.34363916  0.45709282     0.45700
H1584       H  0.67083686  0.34383095  0.44255860    -0.03300
C1585       C  0.67205270  0.34326823  0.49114458     0.45700
H1586       H  0.67256568  0.34307047  0.50567005    -0.03300
C1587       C  0.69525029  0.32709028  0.46492033    -0.17000
C1588       C  0.68793717  0.38304108  0.46535244    -0.16800
C1589       C  0.63019941  0.32045263  0.46495671    -0.17200
C1590       C  0.69561954  0.32660681  0.48286683    -0.17100
C1591       C  0.68992177  0.38325705  0.48334209    -0.16700
C1592       C  0.63043591  0.31992425  0.48294651    -0.17000
O1593       O  0.59983372  0.25168045  0.70102132    -0.80700
O1594       O  0.69407572  0.38579979  0.65024747    -0.65300
O1595       O  0.66637854  0.31230587  0.68596247    -1.11900
C1596       C  0.62826981  0.39159793  0.71555208     1.06200
O1597       O  0.72488455  0.43160560  0.66966741    -0.78600
O1598       O  0.72034279  0.42401527  0.70491982    -0.66100
Ni1599     Ni  0.63212872  0.26009832  0.68080250     1.34900
C1600       C  0.72283002  0.39896781  0.71360644     0.85000
O1601       O  0.70131312  0.32417056  0.65332902    -0.79100
O1602       O  0.66201799  0.26326096  0.66038303    -0.89400
C1603       C  0.71672094  0.42053155  0.65383133     0.84500
O1604       O  0.59437250  0.26532491  0.66728391    -0.67600
O1605       O  0.64780629  0.41655085  0.70410536    -0.86900
C1606       C  0.59868779  0.29005417  0.65626077     0.85400
C1607       C  0.68943321  0.28905653  0.65129501     1.06900
H1608       H  0.63201467  0.36352303  0.67771826     0.38700
O1609       O  0.65717188  0.36914250  0.68253382    -1.09500
O1610       O  0.69814002  0.36386468  0.71210616    -0.66200
Ni1611     Ni  0.64682777  0.33552106  0.70144624     1.26300
O1612       O  0.63074662  0.32110397  0.65462260    -0.66400
O1613       O  0.62715613  0.35992856  0.71649153    -0.78700
C1614       C  0.61123826  0.26434186  0.71646280     0.84800
O1615       O  0.63569639  0.29906102  0.71922769    -0.65900
Ni1616     Ni  0.68553815  0.42219431  0.68690397     1.27400
Ni1617     Ni  0.67966910  0.34770548  0.66753158     1.26100
H1618       H  0.69045629  0.31490814  0.69070351     0.39300
C1619       C  0.98814055  0.00999077  0.79256399     0.45700
H1620       H  0.98838118  0.00954374  0.77803461    -0.03300
C1621       C  0.98790244  0.01082217  0.82661419     0.45700
H1622       H  0.98782424  0.01118960  0.84114817    -0.03300
C1623       C  0.00767197  0.48892492  0.80143793    -0.17000
C1624       C  0.01121304  0.04982499  0.80051516    -0.16800
C1625       C  0.94849890  0.49316101  0.79997768    -0.17200
C1626       C  0.00635063  0.48874525  0.81941298    -0.17100
C1627       C  0.01143693  0.05035504  0.81849351    -0.16700
C1628       C  0.94679445  0.49305244  0.81794941    -0.17000
C1629       C  0.64957191  0.34161407  0.87528088     0.45700
H1630       H  0.64942023  0.34112308  0.86075293    -0.03300
C1631       C  0.65045215  0.34331027  0.90934771     0.45700
H1632       H  0.65053399  0.34364975  0.92388149    -0.03300
C1633       C  0.63267711  0.30222297  0.88354179    -0.17000
C1634       C  0.69109827  0.36538387  0.88345063    -0.16800
C1635       C  0.62546203  0.35825189  0.88321301    -0.17200
C1636       C  0.63321543  0.30349758  0.90149714    -0.17100
C1637       C  0.69150801  0.36655427  0.90144328    -0.16700
C1638       C  0.62604232  0.35895366  0.90117775    -0.17000
C1639       C  0.86063185  0.16815991  0.15912371     0.45700
H1640       H  0.86118512  0.16759907  0.17364720    -0.03300
C1641       C  0.85848633  0.16847947  0.12509771     0.45700
H1642       H  0.85757040  0.16848392  0.11056067    -0.03300
C1643       C  0.87950715  0.14727674  0.15040249    -0.17000
C1644       C  0.81880981  0.14905853  0.15127738    -0.16800
C1645       C  0.88235873  0.20822639  0.15137331    -0.17200
C1646       C  0.87813373  0.14738381  0.13245687    -0.17100
C1647       C  0.81781341  0.14949664  0.13334356    -0.16700
C1648       C  0.88079905  0.20811101  0.13335821    -0.17000
C1649       C  0.52089096  0.50225370  0.20847308     0.45700
H1650       H  0.52160344  0.50127737  0.19399008    -0.03300
C1651       C  0.51687467  0.50237046  0.24246097     0.45700
H1652       H  0.51472698  0.50224411  0.25695388    -0.03300
C1653       C  0.56284946  0.02586733  0.21709521    -0.17000
C1654       C  0.49916625  0.02378050  0.21663583    -0.16800
C1655       C  0.50000314  0.46250887  0.21638823    -0.17200
C1656       C  0.56169239  0.02561342  0.23520061    -0.17100
C1657       C  0.49892410  0.02334746  0.23452306    -0.16700
C1658       C  0.49832283  0.46283081  0.23423840    -0.17000
O1659       O  0.78109733  0.08075580  0.36607906    -0.80700
O1660       O  0.87885756  0.21285526  0.31608258    -0.65300
O1661       O  0.85036906  0.14141033  0.35290062    -1.11900
C1662       C  0.81300046  0.22343043  0.38029556     1.06200
O1663       O  0.91141351  0.25672240  0.33590312    -0.78600
O1664       O  0.90670267  0.25132081  0.37080608    -0.66100
Ni1665     Ni  0.81972410  0.08842803  0.34858119     1.34900
C1666       C  0.90578280  0.22603424  0.38061577     0.85000
O1667       O  0.88447546  0.15040345  0.31982828    -0.79100
O1668       O  0.85633845  0.09185717  0.33112198    -0.89400
C1669       C  0.90166994  0.24740224  0.32003169     0.84500
O1670       O  0.78554430  0.08847723  0.33072825    -0.67600
O1671       O  0.83621559  0.24847470  0.36961384    -0.86900
C1672       C  0.78675058  0.11413032  0.32107093     0.85400
C1673       C  0.87895667  0.11688419  0.32025472     1.06900
H1674       H  0.81814760  0.19445143  0.34320135     0.38700
O1675       O  0.84244459  0.19858822  0.34843222    -1.09500
O1676       O  0.87818215  0.19177196  0.37984951    -0.66200
Ni1677     Ni  0.82877042  0.16470456  0.36734662     1.26300
O1678       O  0.81431965  0.14835958  0.32173486    -0.66400
O1679       O  0.80789942  0.19002442  0.38112347    -0.78700
C1680       C  0.78896226  0.09303319  0.38179735     0.84800
O1681       O  0.81347187  0.12752386  0.38507319    -0.65900
Ni1682     Ni  0.87320286  0.25130993  0.35271623     1.27400
Ni1683     Ni  0.86397394  0.17545746  0.33387588     1.26100
H1684       H  0.87469601  0.14570514  0.35816146     0.39300
O1685       O  0.55071906  0.10628963  0.00392036    -0.80700
O1686       O  0.99151967  0.45470119  0.05107562    -0.65300
O1687       O  0.54098175  0.03741780  0.01553126    -1.11900
C1688       C  0.91792553  0.46101280  0.98707972     1.06200
O1689       O  0.96982174  0.41008990  0.03079185    -0.78600
O1690       O  0.98114178  0.42717203  0.99687615    -0.66100
Ni1691     Ni  0.56248918  0.08778857  0.02467222     1.34900
C1692       C  0.50158385  0.45554407  0.98606375     0.85000
O1693       O  0.56629838  0.01780149  0.04543129    -0.79100
O1694       O  0.57992740  0.07743550  0.04650560    -0.89400
C1695       C  0.97634980  0.42018450  0.04678236     0.84500
O1696       O  0.51382519  0.07728561  0.03438961    -0.67600
O1697       O  0.91442066  0.43312443  0.99587480    -0.86900
C1698       C  0.99697387  0.05291363  0.04448637     0.85400
C1699       C  0.58567939  0.05110171  0.05161204     1.06900
H1700       H  0.95219854  0.48100377  0.02617245     0.38700
O1701       O  0.97115983  0.47670498  0.02023216    -1.09500
O1702       O  0.50965329  0.48970568  0.98703008    -0.66200
Ni1703     Ni  0.99010001  0.01487480  0.00102955     1.26300
O1704       O  0.99905305  0.02305080  0.04683881    -0.66400
O1705       O  0.94760834  0.49437640  0.98847176    -0.78700
C1706       C  0.53733907  0.09379254  0.98866433     0.84800
O1707       O  0.51763382  0.05872145  0.98509078    -0.65900
Ni1708     Ni  0.94404739  0.42448095  0.01350256     1.27400
Ni1709     Ni  0.51548779  0.49834310  0.03329772     1.26100
H1710       H  0.56136977  0.03570411  0.00931748     0.39300
C1711       C  0.66009742  0.09143662  0.25764981    -0.27400
C1712       C  0.66112848  0.06732951  0.27037965     0.02200
C1713       C  0.62892502  0.03042787  0.27183632     0.30300
C1714       C  0.59669764  0.01790227  0.26049959    -0.19200
C1715       C  0.59615887  0.04126854  0.24731156    -0.28600
C1716       C  0.62776966  0.07868402  0.24619156     0.44400
C1717       C  0.69514008  0.08096074  0.28253889     0.05500
O1718       O  0.62802413  0.00699690  0.28481829    -0.57100
H1719       H  0.57205321  0.98960980  0.26200735     0.18500
O1720       O  0.62729462  0.10295135  0.23404520    -0.63800
H1721       H  0.68445167  0.12012015  0.25658284     0.16900
C1722       C  0.71637853  0.06179279  0.28385316     0.29200
C1723       C  0.74569388  0.07257784  0.29667801    -0.24700
C1724       C  0.75523506  0.10325817  0.30793624    -0.24000
C1725       C  0.73533845  0.12357754  0.30611606     0.40600
C1726       C  0.70521961  0.11215287  0.29356616    -0.26400
O1727       O  0.70860635  0.03240791  0.27269253    -0.58300
H1728       H  0.76149883  0.05731078  0.29766428     0.16300
O1729       O  0.74368103  0.15329514  0.31714925    -0.59800
H1730       H  0.68906276  0.12708746  0.29271502     0.14700
H1731       H  0.61260502  0.11399405  0.23959554     0.46600
H1732       H  0.72314708  0.04448045  0.26186717     0.41900
H1733       H  0.76272544  0.17619733  0.31075643     0.45400
H1734       H  0.63027288  0.98668012  0.27876079     0.36900
C1735       C  0.94234006  0.34277094  0.29837166    -0.27400
C1736       C  0.94067146  0.33314730  0.28067037     0.02200
C1737       C  0.92691772  0.29526231  0.27582986     0.30300
C1738       C  0.91464080  0.26745378  0.28871662    -0.19200
C1739       C  0.91617688  0.27706002  0.30651636    -0.28600
C1740       C  0.93015138  0.31523393  0.31123481     0.44400
C1741       C  0.95401838  0.36334390  0.26754717     0.05500
O1742       O  0.92512359  0.28515144  0.25856444    -0.57100
H1743       H  0.90387840  0.23837303  0.28477673     0.18500
O1744       O  0.93157814  0.32605362  0.32837328    -0.63800
H1745       H  0.95320677  0.37191498  0.30225171     0.16900
C1746       C  0.93593599  0.38541163  0.26612569     0.29200
C1747       C  0.95124312  0.41618087  0.25481394    -0.24700
C1748       C  0.98463559  0.42546263  0.24492711    -0.24000
C1749       C  0.50589399  0.41159334  0.24793022     0.40600
C1750       C  0.98718695  0.37234892  0.25748222    -0.26400
O1751       O  0.90300512  0.37672688  0.27559496    -0.58300
H1752       H  0.93716813  0.43298759  0.25385961     0.16300
O1753       O  0.54207446  0.42568948  0.24037697    -0.59800
H1754       H  0.50955272  0.36719446  0.26106410     0.14700
H1755       H  0.90582042  0.32418943  0.33047266     0.46600
H1756       H  0.91224291  0.39571044  0.28523342     0.41900
H1757       H  0.56151838  0.43697289  0.25009286     0.45400
H1758       H  0.89925285  0.28054746  0.25422705     0.36900
C1759       C  0.92126683  0.10494213  0.27772785    -0.27400
C1760       C  0.93108188  0.07759503  0.28245533     0.02200
C1761       C  0.92630104  0.06543618  0.29991369     0.30300
C1762       C  0.91024929  0.07927105  0.31214880    -0.19200
C1763       C  0.89914501  0.10564805  0.30734950    -0.28600
C1764       C  0.90532071  0.11893337  0.29001023     0.44400
C1765       C  0.94626053  0.06177755  0.26916059     0.05500
O1766       O  0.93861331  0.04106849  0.30524011    -0.57100
H1767       H  0.90643196  0.06925126  0.32547655     0.18500
O1768       O  0.89476469  0.14462189  0.28477395    -0.63800
H1769       H  0.92507834  0.11476075  0.26436550     0.16900
C1770       C  0.92785310  0.02243407  0.26620899     0.29200
C1771       C  0.94447957  0.00780550  0.25472789    -0.24700
C1772       C  0.97854697  0.03197094  0.24554053    -0.24000
C1773       C  0.99623765  0.07130282  0.24791233     0.40600
C1774       C  0.98008206  0.08600297  0.25970996    -0.26400
O1775       O  0.89370495  0.99803706  0.27456225    -0.58300
H1776       H  0.93064984  0.97749529  0.25292507     0.16300
O1777       O  0.53390939  0.10348691  0.23871199    -0.59800
H1778       H  0.99461259  0.11629000  0.26185712     0.14700
H1779       H  0.86657429  0.12932378  0.28140929     0.46600
H1780       H  0.87229984  0.99598902  0.26687659     0.41900
H1781       H  0.52606520  0.11653331  0.23008611     0.45400
H1782       H  0.91437686  0.01732574  0.30834614     0.36900
C1783       C  0.90621108  0.30173050  0.11243692    -0.27400
C1784       C  0.92980768  0.30268043  0.09852961     0.02200
C1785       C  0.93876099  0.27359151  0.09678373     0.30300
C1786       C  0.92305885  0.24348799  0.10847620    -0.19200
C1787       C  0.89852673  0.24189604  0.12205251    -0.28600
C1788       C  0.89029592  0.27144161  0.12408771     0.44400
C1789       C  0.94302945  0.33293492  0.08534480     0.05500
O1790       O  0.96367479  0.27498261  0.08395088    -0.57100
H1791       H  0.93011918  0.22123504  0.10694471     0.18500
O1792       O  0.86633561  0.27072815  0.13719949    -0.63800
H1793       H  0.89906710  0.32392380  0.11390987     0.16900
C1794       C  0.93231067  0.32382223  0.06762849     0.29200
C1795       C  0.94429892  0.35247981  0.05530902    -0.24700
C1796       C  0.96638034  0.39082557  0.06031077    -0.24000
C1797       C  0.97679016  0.39995076  0.07815693     0.40600
C1798       C  0.96518270  0.37106901  0.09047897    -0.26400
O1799       O  0.90920483  0.28692071  0.06225448    -0.58300
H1800       H  0.93531799  0.34447079  0.04179634     0.16300
O1801       O  0.50984887  0.43871929  0.08049234    -0.59800
H1802       H  0.97346179  0.37845657  0.10410170     0.14700
H1803       H  0.83957695  0.25852324  0.13195917     0.46600
H1804       H  0.88175917  0.28104512  0.06400631     0.41900
H1805       H  0.49652145  0.45063096  0.08651772     0.45400
H1806       H  0.94733587  0.25342127  0.07593961     0.36900
C1807       C  0.66956091  0.05472738  0.07795640    -0.27400
C1808       C  0.67889859  0.08522775  0.08932025     0.02200
C1809       C  0.65551716  0.10223482  0.08914973     0.30300
C1810       C  0.62442866  0.08989868  0.07719257    -0.19200
C1811       C  0.61578920  0.06027840  0.06534845    -0.28600
C1812       C  0.63821829  0.04217944  0.06600000     0.44400
C1813       C  0.71440069  0.10085196  0.10058004     0.05500
O1814       O  0.66341869  0.13156790  0.10037098    -0.57100
H1815       H  0.60734088  0.10396830  0.07701870     0.18500
O1816       O  0.63097837  0.01344676  0.05451882    -0.63800
H1817       H  0.68755983  0.04160695  0.07787836     0.16900
C1818       C  0.71953537  0.07844507  0.11297897     0.29200
C1819       C  0.75316813  0.09448321  0.12369932    -0.24700
C1820       C  0.78169811  0.13289825  0.12235288    -0.24000
C1821       C  0.77691119  0.15498157  0.10964379     0.40600
C1822       C  0.74350651  0.13892124  0.09885767    -0.26400
O1823       O  0.69129622  0.04124834  0.11506061    -0.58300
H1824       H  0.75729119  0.07658338  0.13275153     0.16300
O1825       O  0.80478590  0.19230608  0.10764195    -0.59800
H1826       H  0.74023887  0.15629199  0.08911497     0.14700
H1827       H  0.64714356  0.02607917  0.04413142     0.46600
H1828       H  0.70161566  0.02654963  0.10905201     0.41900
H1829       H  0.79415939  0.20658560  0.11377577     0.45400
H1830       H  0.65086020  0.11945312  0.11153780     0.36900
C1831       C  0.88297738  0.08580822  0.09655894    -0.27400
C1832       C  0.92283153  0.09665515  0.09713937     0.02200
C1833       C  0.94774571  0.12281251  0.10991553     0.30300
C1834       C  0.93283737  0.13871622  0.12165326    -0.19200
C1835       C  0.89314028  0.12867393  0.12076283    -0.28600
C1836       C  0.86804019  0.10162568  0.10828789     0.44400
C1837       C  0.93904994  0.08365710  0.08324751     0.05500
O1838       O  0.98696203  0.13402816  0.11053886    -0.57100
H1839       H  0.95242684  0.15958090  0.13116574     0.18500
O1840       O  0.82897250  0.09083490  0.10730646    -0.63800
H1841       H  0.86369949  0.06581005  0.08668750     0.16900
C1842       C  0.93732428  0.04862623  0.08411041     0.29200
C1843       C  0.95513585  0.03827129  0.07110657    -0.24700
C1844       C  0.97442481  0.06242497  0.05699879    -0.24000
C1845       C  0.97435742  0.09691337  0.05589792     0.40600
C1846       C  0.95683888  0.10717422  0.06898593    -0.26400
O1847       O  0.91956750  0.02501166  0.09791683    -0.58300
H1848       H  0.95453263  0.01163704  0.07230736     0.16300
O1849       O  0.45254307  0.08992591  0.03645284    -0.59800
H1850       H  0.42245488  0.10847008  0.06223567     0.14700
H1851       H  0.81587735  0.07012554  0.11585459     0.46600
H1852       H  0.89191164  0.00817752  0.09408152     0.41900
H1853       H  0.47319529  0.11692149  0.03559279     0.45400
H1854       H  0.98926674  0.11768108  0.11942298     0.36900
C1855       C  0.92142171  0.03545870  0.19614637    -0.27400
C1856       C  0.94557821  0.07023548  0.18804878     0.02200
C1857       C  0.98673326  0.08671104  0.18922362     0.30300
C1858       C  0.50276244  0.07429416  0.19745591    -0.19200
C1859       C  0.97894427  0.03360236  0.20625765    -0.28600
C1860       C  0.93788142  0.01718800  0.20529501     0.44400
C1861       C  0.92762547  0.08940320  0.17869743     0.05500
O1862       O  0.50906110  0.12409847  0.17919910    -0.57100
H1863       H  0.53435673  0.08865838  0.19866723     0.18500
O1864       O  0.91769305  0.47915741  0.20764499    -0.63800
H1865       H  0.88973687  0.02275723  0.19565104     0.16900
C1866       C  0.89896062  0.07042064  0.16553180     0.29200
C1867       C  0.88283187  0.08928373  0.15668708    -0.24700
C1868       C  0.89535322  0.12724242  0.16059363    -0.24000
C1869       C  0.92352258  0.14605062  0.17392774     0.40600
C1870       C  0.93926718  0.12704740  0.18296013    -0.26400
O1871       O  0.88797457  0.03407208  0.16066477    -0.58300
H1872       H  0.86074602  0.07429612  0.14660772     0.16300
O1873       O  0.93645995  0.18319454  0.17798887    -0.59800
H1874       H  0.96085934  0.14183110  0.19324924     0.14700
H1875       H  0.90015131  0.48132435  0.21623468     0.46600
H1876       H  0.86113114  0.01813537  0.16533546     0.41900
H1877       H  0.95796595  0.19796401  0.16967518     0.45400
H1878       H  0.50960302  0.11625579  0.16694987     0.36900
C1879       C  0.72800483  0.13103835  0.17580338    -0.27400
C1880       C  0.71132782  0.09260418  0.18006099     0.02200
C1881       C  0.73131016  0.07339302  0.17533198     0.30300
C1882       C  0.76750297  0.09278934  0.16679357    -0.19200
C1883       C  0.78323905  0.13069921  0.16213754    -0.28600
C1884       C  0.76342186  0.14990043  0.16670864     0.44400
C1885       C  0.67261149  0.07296539  0.18893972     0.05500
O1886       O  0.71425721  0.03514600  0.17777909    -0.57100
H1887       H  0.78239701  0.07768842  0.16300055     0.18500
O1888       O  0.77847960  0.18708825  0.16234794    -0.63800
H1889       H  0.71323157  0.14636712  0.17936781     0.16900
C1890       C  0.66662534  0.05148838  0.20412522     0.29200
C1891       C  0.63011060  0.03435369  0.21237924    -0.24700
C1892       C  0.59977356  0.04057767  0.20665851    -0.24000
C1893       C  0.60553805  0.06137806  0.19121063     0.40600
C1894       C  0.64146090  0.07686568  0.18242100    -0.26400
O1895       O  0.69661517  0.04811000  0.21142144    -0.58300
H1896       H  0.62604562  0.01693382  0.22364220     0.16300
O1897       O  0.57649105  0.06705916  0.18460689    -0.59800
H1898       H  0.64523374  0.09273164  0.17058708     0.14700
H1899       H  0.76911919  0.18654171  0.15021116     0.46600
H1900       H  0.71065976  0.07027300  0.21939352     0.41900
H1901       H  0.58808491  0.09488033  0.18410753     0.45400
H1902       H  0.73209780  0.03189564  0.18588639     0.36900
C1903       C  0.93054509  0.36585888  0.19418326    -0.27400
C1904       C  0.95478486  0.35100370  0.18971888     0.02200
C1905       C  0.99566580  0.37338672  0.19323322     0.30300
C1906       C  0.50748304  0.41104723  0.20270071    -0.19200
C1907       C  0.98673710  0.42338039  0.20566976    -0.28600
C1908       C  0.94605565  0.40105179  0.20261561     0.44400
C1909       C  0.93737094  0.31287347  0.18106684     0.05500
O1910       O  0.51477894  0.35918475  0.19338094    -0.57100
H1911       H  0.53805736  0.42588458  0.20681394     0.18500
O1912       O  0.92116785  0.41340940  0.20782253    -0.63800
H1913       H  0.89933709  0.35012885  0.19125595     0.16900
C1914       C  0.90075949  0.28202390  0.18620088     0.29200
C1915       C  0.88367840  0.24781023  0.17673720    -0.24700
C1916       C  0.90308448  0.24303764  0.16248900    -0.24000
C1917       C  0.94124467  0.27235261  0.15852435     0.40600
C1918       C  0.95721599  0.30724197  0.16719392    -0.26400
O1919       O  0.88114935  0.28494021  0.20033925    -0.58300
H1920       H  0.85474729  0.22523630  0.18031532     0.16300
O1921       O  0.96310389  0.26744262  0.14600904    -0.59800
H1922       H  0.98511450  0.33009614  0.16276829     0.14700
H1923       H  0.91167615  0.40207875  0.21947202     0.46600
H1924       H  0.89351967  0.28042582  0.21068211     0.41900
H1925       H  0.97868061  0.25834802  0.15242046     0.45400
H1926       H  0.51089694  0.34501571  0.20436527     0.36900
C1927       C  0.81648737  0.41690683  0.96576328    -0.27400
C1928       C  0.82517925  0.43348192  0.94921016     0.02200
C1929       C  0.86421758  0.46120570  0.94549363     0.30300
C1930       C  0.89407595  0.47138720  0.95818200    -0.19200
C1931       C  0.88566287  0.45343170  0.97450869    -0.28600
C1932       C  0.84628552  0.42629433  0.97826766     0.44400
C1933       C  0.79329087  0.41985344  0.93580268     0.05500
O1934       O  0.87333793  0.47865122  0.92956541    -0.57100
H1935       H  0.92405205  0.49231678  0.95500859     0.18500
O1936       O  0.83648012  0.40919308  0.99427824    -0.63800
H1937       H  0.78652978  0.39571619  0.96883305     0.16900
C1938       C  0.79159626  0.39642317  0.92185867     0.29200
C1939       C  0.75895839  0.38007206  0.91046287    -0.24700
C1940       C  0.72754790  0.38674065  0.91271381    -0.24000
C1941       C  0.72966860  0.41084927  0.92646868     0.40600
C1942       C  0.76231412  0.42711955  0.93789596    -0.26400
O1943       O  0.82107281  0.38823653  0.91964953    -0.58300
H1944       H  0.75759599  0.36105931  0.90021261     0.16300
O1945       O  0.70037613  0.41935388  0.92858927    -0.59800
H1946       H  0.76319964  0.44503391  0.94859150     0.14700
H1947       H  0.83322026  0.38378190  0.99236058     0.46600
H1948       H  0.81349074  0.36561631  0.92688786     0.41900
H1949       H  0.68594996  0.40551015  0.93914989     0.45400
H1950       H  0.88328538  0.46488030  0.92251364     0.36900
C1951       C  0.55489826  0.14157369  0.94435647    -0.27400
C1952       C  0.57239998  0.17960976  0.94958891     0.02200
C1953       C  0.57512441  0.18882123  0.96745549     0.30300
C1954       C  0.56197301  0.16031268  0.97987628    -0.19200
C1955       C  0.54629486  0.12220325  0.97483885    -0.28600
C1956       C  0.54207826  0.11289044  0.95682794     0.44400
C1957       C  0.58844893  0.20978843  0.93643000     0.05500
O1958       O  0.58988191  0.22562782  0.97284602    -0.57100
H1959       H  0.56479667  0.16836555  0.99356848     0.18500
O1960       O  0.52633575  0.07613625  0.95123736    -0.63800
H1961       H  0.55228844  0.13423435  0.93057532     0.16900
C1962       C  0.62863551  0.23759585  0.93671534     0.29200
C1963       C  0.64280097  0.26775997  0.92512961    -0.24700
C1964       C  0.61754837  0.27009692  0.91287199    -0.24000
C1965       C  0.57761985  0.24169735  0.91215662     0.40600
C1966       C  0.56328497  0.21174976  0.92396327    -0.26400
O1967       O  0.65417464  0.23573775  0.94841574    -0.58300
H1968       H  0.67360987  0.28943348  0.92568663     0.16300
O1969       O  0.55208622  0.24432556  0.90072219    -0.59800
H1970       H  0.53229043  0.19061054  0.92371508     0.14700
H1971       H  0.54910929  0.07224512  0.94992680     0.46600
H1972       H  0.66138211  0.21798327  0.94303883     0.41900
H1973       H  0.54291902  0.22245757  0.89258125     0.45400
H1974       H  0.61577324  0.23332890  0.97835238     0.36900
C1975       C  0.56128933  0.36636436  0.93543179    -0.27400
C1976       C  0.57315229  0.40497802  0.93492997     0.02200
C1977       C  0.60184303  0.42825295  0.92274526     0.30300
C1978       C  0.61806485  0.41273518  0.91141615    -0.19200
C1979       C  0.60650953  0.37433606  0.91223025    -0.28600
C1980       C  0.57799589  0.35114649  0.92435040     0.44400
C1981       C  0.55678613  0.42043418  0.94794555     0.05500
O1982       O  0.61628775  0.46653792  0.92272562    -0.57100
H1983       H  0.64074670  0.43098928  0.90239807     0.18500
O1984       O  0.56660175  0.31361538  0.92560628    -0.63800
H1985       H  0.53924820  0.34793917  0.94464473     0.16900
C1986       C  0.54066112  0.44304582  0.94300142     0.29200
C1987       C  0.52437998  0.45590096  0.95567569    -0.24700
C1988       C  0.52240213  0.44520303  0.97320948    -0.24000
C1989       C  0.53844422  0.42269787  0.97815381     0.40600
C1990       C  0.55571050  0.41080449  0.96563293    -0.26400
O1991       O  0.53911967  0.45144030  0.92578202    -0.58300
H1992       H  0.01622403  0.47124448  0.95330310     0.16000
O1993       O  0.53719880  0.41198312  0.99521360    -0.59800
H1994       H  0.56804943  0.39363027  0.96975508     0.14700
H1995       H  0.54270108  0.30012367  0.91812155     0.46600
H1996       H  0.01844558  0.42728415  0.92250275     0.41900
H1997       H  0.56043609  0.43340847  0.00100339     0.45400
H1998       H  0.60892929  0.47205456  0.91113884     0.36900
C1999       C  0.54603135  0.37648292  0.86546436    -0.27400
C2000       C  0.56793528  0.40718631  0.85442083     0.02200
C2001       C  0.60804918  0.41962649  0.85183803     0.30300
C2002       C  0.62606385  0.40245346  0.86077836    -0.19200
C2003       C  0.60459499  0.37292713  0.87242752    -0.28600
C2004       C  0.56401769  0.35928022  0.87438772     0.44400
C2005       C  0.54906436  0.42664230  0.84590809     0.05500
O2006       O  0.63002025  0.44894539  0.84078570    -0.57100
H2007       H  0.65718469  0.41302259  0.85904688     0.18500
O2008       O  0.54182278  0.32967038  0.88526236    -0.63800
H2009       H  0.51508352  0.36637272  0.86745323     0.16900
C2010       C  0.51787488  0.40754439  0.83381714     0.29200
C2011       C  0.00618195  0.42947094  0.82681344    -0.24700
C2012       C  0.51678576  0.46576814  0.82858000    -0.24000
C2013       C  0.54673600  0.48442038  0.84124936     0.40600
C2014       C  0.56290653  0.46495894  0.84968733    -0.26400
O2015       O  0.00995250  0.37361447  0.83092808    -0.58300
H2016       H  0.98418998  0.41476934  0.81666180     0.16300
O2017       O  0.57140799  0.02763584  0.84106604    -0.59800
H2018       H  0.58668514  0.47993334  0.85907459     0.14700
H2019       H  0.53679705  0.30668541  0.87868773     0.46600
H2020       H  0.02845699  0.37534258  0.82174816     0.41900
H2021       H  0.55897567  0.03172163  0.85144393     0.45400
H2022       H  0.62513601  0.43724146  0.82895630     0.36900
C2023       C  0.58676465  0.14651171  0.83782575    -0.27400
C2024       C  0.56422508  0.15605585  0.84854998     0.02200
C2025       C  0.52400273  0.12950335  0.85074803     0.30300
C2026       C  0.50665419  0.09461360  0.84178910    -0.19200
C2027       C  0.52893384  0.08582530  0.83049538    -0.28600
C2028       C  0.56949172  0.11169387  0.82891514     0.44400
C2029       C  0.58290667  0.19405527  0.85705955     0.05500
O2030       O  0.50131875  0.13765183  0.86141556    -0.57100
H2031       H  0.97888435  0.07430061  0.84268300     0.18500
O2032       O  0.59225676  0.10356430  0.81828976    -0.63800
H2033       H  0.61773939  0.16649972  0.83604604     0.16900
C2034       C  0.61416064  0.20554481  0.86912597     0.29200
C2035       C  0.63115843  0.24135570  0.87711789    -0.24700
C2036       C  0.61759322  0.26639401  0.87322424    -0.24000
C2037       C  0.58741089  0.25549585  0.86062507     0.40600
C2038       C  0.57001247  0.21941537  0.85279379    -0.26400
O2039       O  0.62695439  0.18122099  0.87382663    -0.58300
H2040       H  0.65455324  0.24933783  0.88668112     0.16300
O2041       O  0.57293831  0.27887449  0.85673938    -0.59800
H2042       H  0.54625048  0.21112178  0.84339607     0.14700
H2043       H  0.60768765  0.09691103  0.82631073     0.46600
H2044       H  0.65124515  0.18927557  0.86704514     0.41900
H2045       H  0.58588094  0.29140539  0.84570141     0.45400
H2046       H  0.50386823  0.12900817  0.87318650     0.36900
C2047       C  0.84592017  0.47013961  0.83382145    -0.27400
C2048       C  0.83731235  0.44095028  0.84566041     0.02200
C2049       C  0.86574851  0.43036501  0.84893314     0.30300
C2050       C  0.90169877  0.44832796  0.84018031    -0.19200
C2051       C  0.90977404  0.47673937  0.82800399    -0.28600
C2052       C  0.88190820  0.48816256  0.82511540     0.44400
C2053       C  0.79882552  0.42195384  0.85465898     0.05500
O2054       O  0.85863249  0.40242222  0.86063300    -0.57100
H2055       H  0.92295879  0.43938704  0.84256947     0.18500
O2056       O  0.88944342  0.51674400  0.81373830    -0.63800
H2057       H  0.82448388  0.47874350  0.83120719     0.16900
C2058       C  0.78642830  0.44288265  0.86477325     0.29200
C2059       C  0.75079029  0.42429726  0.87373835    -0.24700
C2060       C  0.72698784  0.38484976  0.87271856    -0.24000
C2061       C  0.73870002  0.36397544  0.86224687     0.40600
C2062       C  0.77453703  0.38249605  0.85340977    -0.26400
O2063       O  0.80937242  0.48142220  0.86631270    -0.58300
H2064       H  0.74196860  0.44061642  0.88175798     0.16300
O2065       O  0.71644550  0.32529295  0.86140709    -0.59800
H2066       H  0.78353370  0.36599379  0.84563618     0.14700
H2067       H  0.90644513  0.54045014  0.82038797     0.46600
H2068       H  0.82857973  0.48581012  0.87579809     0.41900
H2069       H  0.69942655  0.31960721  0.85088354     0.45400
H2070       H  0.86681679  0.41537878  0.87218765     0.36900
C2071       C  0.79995007  0.45684005  0.74810388    -0.27400
C2072       C  0.81793680  0.43513639  0.75083772     0.02200
C2073       C  0.80391892  0.40086397  0.74147482     0.30300
C2074       C  0.77265725  0.38905649  0.72949123    -0.19200
C2075       C  0.75552070  0.41144227  0.72639408    -0.28600
C2076       C  0.76917466  0.44537731  0.73600206     0.44400
C2077       C  0.85173800  0.44922637  0.76322910     0.05500
O2078       O  0.82103494  0.37910066  0.74367326    -0.57100
H2079       H  0.76236733  0.36276066  0.72232169     0.18500
O2080       O  0.75222844  0.46732548  0.73389302    -0.63800
H2081       H  0.80977960  0.48285437  0.75545262     0.16900
C2082       C  0.88398192  0.48623274  0.76178015     0.29200
C2083       C  0.91470370  0.50003742  0.77402650    -0.24700
C2084       C  0.91432374  0.47735051  0.78775148    -0.24000
C2085       C  0.88294747  0.43978336  0.78884387     0.40600
C2086       C  0.85166556  0.42616154  0.77677697    -0.26400
O2087       O  0.88585886  0.50914239  0.74835862    -0.58300
H2088       H  0.93863894  0.02940236  0.77305409     0.16300
O2089       O  0.88277973  0.41601507  0.80144250    -0.59800
H2090       H  0.82722803  0.39758271  0.77804927     0.14700
H2091       H  0.72958368  0.45665866  0.74195237     0.46600
H2092       H  0.90067048  0.00470221  0.73878925     0.41900
H2093       H  0.89670608  0.40386466  0.79621925     0.45400
H2094       H  0.84296213  0.38906452  0.73524046     0.36900
C2095       C  0.54501456  0.17773783  0.74298130    -0.27400
C2096       C  0.56938810  0.18234795  0.75731606     0.02200
C2097       C  0.60632963  0.21541529  0.75895516     0.30300
C2098       C  0.61892740  0.24309566  0.74601120    -0.19200
C2099       C  0.59521423  0.23779492  0.73120912    -0.28600
C2100       C  0.55765445  0.20504144  0.72995038     0.44400
C2101       C  0.55658113  0.15120949  0.76982856     0.05500
O2102       O  0.63082490  0.22024303  0.77280355    -0.57100
H2103       H  0.64797879  0.26787922  0.74715015     0.18500
O2104       O  0.53343800  0.19892582  0.71580861    -0.63800
H2105       H  0.51651266  0.15228931  0.74164128     0.16900
C2106       C  0.52680600  0.14363051  0.78191300     0.29200
C2107       C  0.01699254  0.11157168  0.79228370    -0.24700
C2108       C  0.52708923  0.08695955  0.79099582    -0.24000
C2109       C  0.55696548  0.09462233  0.77895405     0.40600
C2110       C  0.57177207  0.12681718  0.76854052    -0.26400
O2111       O  0.01950495  0.16926311  0.78437588    -0.58300
H2112       H  0.99749510  0.10846423  0.80288007     0.16300
O2113       O  0.57129573  0.07042655  0.77707737    -0.59800
H2114       H  0.59432535  0.13219661  0.75907535     0.14700
H2115       H  0.51648606  0.20926465  0.71935277     0.46600
H2116       H  0.99405705  0.15964161  0.77808184     0.41900
H2117       H  0.59551788  0.08146163  0.78441055     0.45400
H2118       H  0.62241124  0.23096142  0.78237498     0.36900
C2119       C  0.57295530  0.43431531  0.73704841    -0.27400
C2120       C  0.56902359  0.42088660  0.75414140     0.02200
C2121       C  0.58302617  0.39636111  0.75841132     0.30300
C2122       C  0.60116159  0.38590348  0.74557637    -0.19200
C2123       C  0.60627422  0.40037230  0.72854809    -0.28600
C2124       C  0.59144290  0.42437784  0.72431367     0.44400
C2125       C  0.55120053  0.43401953  0.76729869     0.05500
O2126       O  0.57841705  0.38200738  0.77495176    -0.57100
H2127       H  0.61219520  0.36730747  0.74908261     0.18500
O2128       O  0.59496697  0.43846958  0.70777592    -0.63800
H2129       H  0.56220184  0.45319698  0.73364449     0.16900
C2130       C  0.57409541  0.45862719  0.78097929     0.29200
C2131       C  0.55824633  0.47529284  0.79171448    -0.24700
C2132       C  0.51962588  0.46769324  0.78895870    -0.24000
C2133       C  0.49642912  0.44229349  0.77558265     0.40600
C2134       C  0.51227047  0.42561649  0.76486626    -0.26400
O2135       O  0.61189345  0.96938527  0.78259203    -0.58300
H2136       H  0.57728259  0.99713115  0.80150086     0.16300
O2137       O  0.45802994  0.43304485  0.77313420    -0.59800
H2138       H  0.49443369  0.40671761  0.75435626     0.14700
H2139       H  0.57104502  0.41946912  0.70136036     0.46600
H2140       H  0.62755415  0.99054073  0.77454231     0.41900
H2141       H  0.96010061  0.44797665  0.76426509     0.45400
H2142       H  0.60478724  0.39626298  0.78057757     0.36900
C2143       C  0.71367318  0.25608730  0.44121203    -0.27400
C2144       C  0.74491098  0.27969376  0.43027483     0.02200
C2145       C  0.76072999  0.31917440  0.43139411     0.30300
C2146       C  0.74478515  0.33424070  0.44303527    -0.19200
C2147       C  0.71320575  0.31054902  0.45366013    -0.28600
C2148       C  0.69813962  0.27131132  0.45300535     0.44400
C2149       C  0.76001300  0.26295297  0.41738435     0.05500
O2150       O  0.79255628  0.34325535  0.42156596    -0.57100
H2151       H  0.75745018  0.36454584  0.44390483     0.18500
O2152       O  0.66714256  0.24758884  0.46330335    -0.63800
H2153       H  0.70068254  0.22569016  0.44036667     0.16900
C2154       C  0.77080774  0.23625456  0.42234791     0.29200
C2155       C  0.78642549  0.22217326  0.40995067    -0.24700
C2156       C  0.79189621  0.23469162  0.39260219    -0.24000
C2157       C  0.78002465  0.26053865  0.38755995     0.40600
C2158       C  0.76375971  0.27397922  0.39983741    -0.26400
O2159       O  0.76849431  0.22557950  0.43947493    -0.58300
H2160       H  0.79585052  0.20268703  0.41409974     0.16300
O2161       O  0.78355710  0.27233429  0.37056322    -0.59800
H2162       H  0.75434226  0.29342289  0.39562873     0.14700
H2163       H  0.67847079  0.23837323  0.47231025     0.46600
H2164       H  0.74622805  0.19918507  0.43981775     0.41900
H2165       H  0.80720763  0.29795877  0.37049983     0.45400
H2166       H  0.78230920  0.35402189  0.41280718     0.36900
C2167       C  0.55779372  0.26622425  0.42807464    -0.27400
C2168       C  0.52806055  0.27476094  0.43121295     0.02200
C2169       C  0.53107535  0.29698616  0.44590815     0.30300
C2170       C  0.56402046  0.31106674  0.45702539    -0.19200
C2171       C  0.59426530  0.30324777  0.45368785    -0.28600
C2172       C  0.59077358  0.28036652  0.43915655     0.44400
C2173       C  0.49524302  0.26221837  0.41848393     0.05500
O2174       O  0.00432079  0.30640334  0.45003708    -0.57100
H2175       H  0.56632387  0.32881972  0.46806317     0.18500
O2176       O  0.61949254  0.27175408  0.43563229    -0.63800
H2177       H  0.55580389  0.24920975  0.41677409     0.16900
C2178       C  0.99399097  0.28903065  0.40947901     0.29200
C2179       C  0.96395881  0.27658365  0.39691283    -0.24700
C2180       C  0.93806441  0.23775594  0.39376765    -0.24000
C2181       C  0.94322913  0.21132540  0.40354923     0.40600
C2182       C  0.97335125  0.22393492  0.41619353    -0.26400
O2183       O  0.51737488  0.32680270  0.41063401    -0.58300
H2184       H  0.96095713  0.29764719  0.38965547     0.16300
O2185       O  0.91902988  0.17317643  0.40099400    -0.59800
H2186       H  0.97695555  0.20338173  0.42360343     0.14700
H2187       H  0.61109411  0.24751977  0.44164400     0.46600
H2188       H  0.53839794  0.33262472  0.40204723     0.41900
H2189       H  0.93188349  0.16607951  0.39181181     0.45400
H2190       H  0.01605190  0.33367079  0.44745709     0.36900
C2191       C  0.77223636  0.04094089  0.42450049    -0.27400
C2192       C  0.72968218  0.50993542  0.41993117     0.02200
C2193       C  0.71373267  0.00719784  0.40627742     0.30300
C2194       C  0.73085126  0.03566918  0.39375354    -0.19200
C2195       C  0.76906971  0.06655242  0.39629349    -0.28600
C2196       C  0.78917184  0.06974302  0.41213636     0.44400
C2197       C  0.71918498  0.47837049  0.43204439     0.05500
O2198       O  0.68452249  0.46727428  0.39805257    -0.57100
H2199       H  0.71474115  0.03296234  0.38176551     0.18500
O2200       O  0.82679761  0.09900969  0.41495335    -0.63800
H2201       H  0.78903339  0.04240336  0.43607339     0.16900
C2202       C  0.73439744  0.45426563  0.42919697     0.29200
C2203       C  0.72398110  0.42361719  0.44017713    -0.24700
C2204       C  0.69881610  0.41664201  0.45429365    -0.24000
C2205       C  0.68347045  0.44081648  0.45720617     0.40600
C2206       C  0.69381361  0.47160378  0.44608384    -0.26400
O2207       O  0.76355991  0.95891884  0.41644669    -0.58300
H2208       H  0.73595948  0.40542915  0.43770705     0.16300
O2209       O  0.65673103  0.43327858  0.47021354    -0.59800
H2210       H  0.68156443  0.48977444  0.44823177     0.14700
H2211       H  0.82385668  0.11828538  0.42161389     0.46600
H2212       H  0.74735169  0.94673253  0.40581613     0.41900
H2213       H  0.67019479  0.45435956  0.47879610     0.45400
H2214       H  0.69657608  0.45493272  0.39136833     0.36900
C2215       C  0.79984265  0.24880566  0.60170823    -0.27400
C2216       C  0.75988718  0.23727291  0.60010236     0.02200
C2217       C  0.73698231  0.21143873  0.58679716     0.30300
C2218       C  0.75414132  0.19719400  0.57535124    -0.19200
C2219       C  0.79389988  0.20793750  0.57726094    -0.28600
C2220       C  0.81679665  0.23394656  0.59052571     0.44400
C2221       C  0.74192279  0.25075704  0.61300418     0.05500
O2222       O  0.69793006  0.20024845  0.58485426    -0.57100
H2223       H  0.73615635  0.17694199  0.56528645     0.18500
O2224       O  0.85594865  0.24557574  0.59241868    -0.63800
H2225       H  0.81765568  0.26863655  0.61194530     0.16900
C2226       C  0.71638134  0.22605701  0.62563394     0.29200
C2227       C  0.69954923  0.23897378  0.63785777    -0.24700
C2228       C  0.70804297  0.27676785  0.63790915    -0.24000
C2229       C  0.73407991  0.30162007  0.62523353     0.40600
C2230       C  0.75098489  0.28853046  0.61299580    -0.26400
O2231       O  0.70793559  0.18923134  0.62620713    -0.58300
H2232       H  0.68003262  0.21919921  0.64745629     0.16300
O2233       O  0.74330832  0.33866018  0.62463297    -0.59800
H2234       H  0.77095007  0.30780658  0.60335911     0.14700
H2235       H  0.85764424  0.23157336  0.60261110     0.46600
H2236       H  0.72733636  0.18931157  0.63458341     0.41900
H2237       H  0.72327602  0.33877021  0.61672828     0.45400
H2238       H  0.68350048  0.17525115  0.59054844     0.36900
C2239       C  0.96226124  0.25779945  0.59218991    -0.27400
C2240       C  0.96717911  0.23407678  0.60389201     0.02200
C2241       C  0.94049242  0.19476302  0.60296247     0.30300
C2242       C  0.90927786  0.18011455  0.59091797    -0.19200
C2243       C  0.90505760  0.20371349  0.57901991    -0.28600
C2244       C  0.93189890  0.24281531  0.57961940     0.44400
C2245       C  0.50433747  0.25716722  0.61908109     0.05500
O2246       O  0.94468383  0.17028689  0.61370870    -0.57100
H2247       H  0.88848417  0.15007776  0.59077047     0.18500
O2248       O  0.92711707  0.26676087  0.56873783    -0.63800
H2249       H  0.98158237  0.28813450  0.59295421     0.16900
C2250       C  0.54324457  0.28389969  0.61462182     0.29200
C2251       C  0.57346066  0.29592289  0.62715057    -0.24700
C2252       C  0.56556050  0.28148316  0.64420011    -0.24000
C2253       C  0.52625572  0.25654621  0.64892728     0.40600
C2254       C  0.99204837  0.23864932  0.63459637    -0.26400
O2255       O  0.55250032  0.29612838  0.59773174    -0.58300
H2256       H  0.60344694  0.31507692  0.62322130     0.16300
O2257       O  0.51707864  0.24277216  0.66559137    -0.59800
H2258       H  0.96224838  0.21922616  0.63865257     0.14700
H2259       H  0.94962195  0.27673823  0.56061639     0.46600
H2260       H  0.55686715  0.32219110  0.59782775     0.41900
H2261       H  0.51162946  0.26076917  0.67197823     0.45400
H2262       H  0.96339638  0.16468174  0.60764821     0.36900
C2263       C  0.80084374  0.04706719  0.59017660    -0.27400
C2264       C  0.76415454  0.03269969  0.59813425     0.02200
C2265       C  0.74032676  0.04824758  0.59406245     0.30300
C2266       C  0.75432271  0.07926011  0.58287886    -0.19200
C2267       C  0.79134269  0.09404938  0.57520789    -0.28600
C2268       C  0.81422978  0.07719241  0.57851233     0.44400
C2269       C  0.75253007  0.00373906  0.61177398     0.05500
O2270       O  0.70437867  0.03470684  0.60174410    -0.57100
H2271       H  0.73665993  0.09228021  0.58046168     0.18500
O2272       O  0.85057647  0.09135378  0.57112468    -0.63800
H2273       H  0.81940538  0.03531384  0.59326650     0.16900
C2274       C  0.72450439  0.46804728  0.61052351     0.29200
C2275       C  0.71239659  0.44055501  0.62352153    -0.24700
C2276       C  0.73301594  0.44843920  0.63954509    -0.24000
C2277       C  0.76723876  0.48405278  0.64206641     0.40600
C2278       C  0.77083683  0.01434219  0.62825875    -0.26400
O2279       O  0.70307228  0.45998513  0.59527074    -0.58300
H2280       H  0.68597916  0.41347428  0.62128972     0.16300
O2281       O  0.78899554  0.49251503  0.65724410    -0.59800
H2282       H  0.79368624  0.04334991  0.63074121     0.14700
H2283       H  0.84809049  0.07144654  0.56288543     0.46600
H2284       H  0.71479779  0.44930444  0.58725663     0.41900
H2285       H  0.78115724  0.50796511  0.66433765     0.45400
H2286       H  0.68516060  0.01598237  0.59326025     0.36900
C2287       C  0.71206531  0.26456668  0.51452925    -0.27400
C2288       C  0.75123778  0.27492840  0.51121193     0.02200
C2289       C  0.77273536  0.30371743  0.49908873     0.30300
C2290       C  0.75483728  0.32127855  0.49036269    -0.19200
C2291       C  0.71531370  0.31021916  0.49337675    -0.28600
C2292       C  0.69413513  0.28199511  0.50576144     0.44400
C2293       C  0.76857285  0.25435626  0.52002348     0.05500
O2294       O  0.81090256  0.31420667  0.49535877    -0.57100
H2295       H  0.77169028  0.34318189  0.48099091     0.18500
O2296       O  0.65543493  0.27022897  0.50892801    -0.63800
H2297       H  0.69513138  0.24246874  0.52381371     0.16900
C2298       C  0.80193094  0.27324876  0.53104916     0.29200
C2299       C  0.81644861  0.25271524  0.53981700    -0.24700
C2300       C  0.79815644  0.21332271  0.53771557    -0.24000
C2301       C  0.76534215  0.19456342  0.52646881     0.40600
C2302       C  0.75053518  0.21497917  0.51786138    -0.26400
O2303       O  0.81993085  0.31158724  0.53367248    -0.58300
H2304       H  0.84170177  0.26745771  0.54849944     0.16300
O2305       O  0.74628741  0.15604409  0.52451854    -0.59800
H2306       H  0.72472399  0.20000135  0.50951219     0.14700
H2307       H  0.64029392  0.24700353  0.50171033     0.46600
H2308       H  0.80586954  0.31500165  0.54359285     0.41900
H2309       H  0.75903112  0.15136040  0.51443436     0.45400
H2310       H  0.80917942  0.29847068  0.48510043     0.36900
C2311       C  0.76474674  0.48289292  0.49864041    -0.27400
C2312       C  0.74647238  0.48734434  0.51343612     0.02200
C2313       C  0.71106673  0.45604609  0.51917925     0.30300
C2314       C  0.69333499  0.42215453  0.50950498    -0.19200
C2315       C  0.71069645  0.41842889  0.49423826    -0.28600
C2316       C  0.74790653  0.44855024  0.48946381     0.44400
C2317       C  0.76291859  0.02399425  0.51998553     0.05500
O2318       O  0.69340678  0.45827396  0.53418571    -0.57100
H2319       H  0.66564423  0.39904443  0.51384361     0.18500
O2320       O  0.76830897  0.44479475  0.47588368    -0.63800
H2321       H  0.79062907  0.00464803  0.49156896     0.16900
C2322       C  0.80383498  0.04778636  0.52279409     0.29200
C2323       C  0.81850029  0.08366962  0.53041540    -0.24700
C2324       C  0.79296493  0.09583443  0.53612987    -0.24000
C2325       C  0.75228491  0.07244432  0.53339322     0.40600
C2326       C  0.73762511  0.03727980  0.52498718    -0.26400
O2327       O  0.82973148  0.03580302  0.51877251    -0.58300
H2328       H  0.84983700  0.10126820  0.53274306     0.16300
O2329       O  0.72670235  0.08380362  0.53888381    -0.59800
H2330       H  0.70626855  0.02019406  0.52256474     0.14700
H2331       H  0.78046770  0.43061876  0.48073619     0.46600
H2332       H  0.83067485  0.02217468  0.52927528     0.41900
H2333       H  0.71299868  0.06774622  0.54905383     0.45400
H2334       H  0.70617485  0.45198997  0.54377589     0.36900
C2335       C  0.53253296  0.24104018  0.49973565    -0.27400
C2336       C  0.52380260  0.26044605  0.51246325     0.02200
C2337       C  0.55131418  0.29853814  0.51623156     0.30300
C2338       C  0.58638901  0.31714109  0.50687894    -0.19200
C2339       C  0.59453343  0.29835579  0.49363715    -0.28600
C2340       C  0.56774270  0.25965070  0.49039571     0.44400
C2341       C  0.98306950  0.24247707  0.52215005     0.05500
O2342       O  0.54432919  0.31757462  0.52924349    -0.57100
H2343       H  0.60658421  0.34667793  0.50959960     0.18500
O2344       O  0.57535522  0.24008865  0.47787412    -0.63800
H2345       H  0.51170060  0.21159267  0.49683259     0.16900
C2346       C  0.95488997  0.25339427  0.51895759     0.29200
C2347       C  0.91851820  0.23488820  0.52737580    -0.24700
C2348       C  0.90982089  0.20555152  0.53909370    -0.24000
C2349       C  0.93735582  0.19358312  0.54170967     0.40600
C2350       C  0.97370668  0.21209125  0.53330059    -0.26400
O2351       O  0.96271494  0.28223414  0.50769552    -0.58300
H2352       H  0.89745707  0.24412673  0.52512226     0.16300
O2353       O  0.92905924  0.16391923  0.55250775    -0.59800
H2354       H  0.49774881  0.20160173  0.53468838     0.14700
H2355       H  0.58099702  0.22244865  0.48437312     0.46600
H2356       H  0.95712028  0.27055380  0.49584535     0.41900
H2357       H  0.91773842  0.14130230  0.54474163     0.45400
H2358       H  0.53644910  0.33406346  0.52312933     0.36900
C2359       C  0.83541365  0.67131727  0.54189353     0.45700
H2360       H  0.83740722  0.67155149  0.52740387    -0.03300
C2361       C  0.83119553  0.67047368  0.57591641     0.45700
H2362       H  0.82924684  0.66985967  0.59041912    -0.03300
C2363       C  0.87576299  0.69055273  0.55127295    -0.17000
C2364       C  0.81460975  0.69179520  0.54911213    -0.16800
C2365       C  0.81328566  0.63138922  0.54962416    -0.17200
C2366       C  0.87339079  0.69030767  0.56920437    -0.17100
C2367       C  0.81219757  0.69098222  0.56704882    -0.16700
C2368       C  0.81153892  0.63111635  0.56748922    -0.17000
C2369       C  0.67102228  0.83955846  0.45686545     0.45700
H2370       H  0.67033756  0.83951162  0.44232499    -0.03300
C2371       C  0.67253354  0.83961745  0.49096326     0.45700
H2372       H  0.67322162  0.83942969  0.50548669    -0.03300
C2373       C  0.69407307  0.82200299  0.46462920    -0.17000
C2374       C  0.68901385  0.87907741  0.46501274    -0.16800
C2375       C  0.63026807  0.81776822  0.46490968    -0.17200
C2376       C  0.69490928  0.82178012  0.48254249    -0.17100
C2377       C  0.69141322  0.87965586  0.48301801    -0.16700
C2378       C  0.63067045  0.81740436  0.48286684    -0.17000
O2379       O  0.59860493  0.75391808  0.69968295    -0.80700
O2380       O  0.69212464  0.88736518  0.64962657    -0.65300
O2381       O  0.66566541  0.81374922  0.68515084    -1.11900
C2382       C  0.62653807  0.89177721  0.71533003     1.06200
O2383       O  0.72269327  0.93322812  0.66903760    -0.78600
O2384       O  0.71925549  0.92511805  0.70431730    -0.66100
Ni2385     Ni  0.63190576  0.76149152  0.68004738     1.34900
C2386       C  0.72203506  0.90024831  0.71304063     0.85000
O2387       O  0.69912298  0.82533753  0.65200147    -0.79100
O2388       O  0.66249363  0.76460486  0.66000566    -0.89400
C2389       C  0.71411484  0.92223155  0.65319917     0.84500
O2390       O  0.59455779  0.76531953  0.66562899    -0.67600
O2391       O  0.64621814  0.91702413  0.70401748    -0.86900
C2392       C  0.59832676  0.79036127  0.65492141     0.85400
C2393       C  0.68787962  0.79024345  0.65014417     1.06900
H2394       H  0.63070970  0.86453022  0.67744224     0.38700
O2395       O  0.65599618  0.87027296  0.68214347    -1.09500
O2396       O  0.69730615  0.86506124  0.71167804    -0.66200
Ni2397     Ni  0.64590177  0.83641735  0.70095561     1.26300
O2398       O  0.62924775  0.82256284  0.65408233    -0.66400
O2399       O  0.62575948  0.86023693  0.71620672    -0.78700
C2400       C  0.61014463  0.76478287  0.71528276     0.84800
O2401       O  0.63469699  0.79931358  0.71854359    -0.65900
Ni2402     Ni  0.68379840  0.92323998  0.68659204     1.27400
Ni2403     Ni  0.67831738  0.84910807  0.66677463     1.26100
H2404       H  0.68995532  0.81665002  0.68978253     0.39300
C2405       C  0.99040644  0.51123422  0.79295696     0.45700
H2406       H  0.99177650  0.51163280  0.77844432    -0.03300
C2407       C  0.98752339  0.51081708  0.82696772     0.45700
H2408       H  0.98614770  0.51066628  0.84147532    -0.03300
C2409       C  0.00544923  0.98758858  0.80086315    -0.17000
C2410       C  0.01248405  0.55071010  0.80131595    -0.16800
C2411       C  0.94687339  0.99294168  0.80016480    -0.17200
C2412       C  0.00570673  0.98812723  0.81877968    -0.17100
C2413       C  0.01130974  0.55064931  0.81923070    -0.16700
C2414       C  0.94653452  0.99337658  0.81818074    -0.17000
C2415       C  0.64789103  0.84018397  0.87397101     0.45700
H2416       H  0.64724450  0.84011695  0.85944587    -0.03300
C2417       C  0.64972493  0.84077705  0.90804960     0.45700
H2418       H  0.65058219  0.84099905  0.92258379    -0.03300
C2419       C  0.62990135  0.80044762  0.88199708    -0.17000
C2420       C  0.68969043  0.86253842  0.88187681    -0.16800
C2421       C  0.62564227  0.85821802  0.88242790    -0.17200
C2422       C  0.63060509  0.80100512  0.89997631    -0.17100
C2423       C  0.69046271  0.86264539  0.89984041    -0.16700
C2424       C  0.62690846  0.85857921  0.90040015    -0.17000
C2425       C  0.86071396  0.67010733  0.15972091     0.45700
H2426       H  0.86295216  0.67026231  0.17421946    -0.03300
C2427       C  0.85463604  0.66943801  0.12578726     0.45700
H2428       H  0.85220390  0.66911487  0.11129607    -0.03300
C2429       C  0.87859318  0.64886696  0.15047611    -0.17000
C2430       C  0.81809304  0.65057294  0.15291631    -0.16800
C2431       C  0.88108250  0.70987860  0.15158180    -0.17200
C2432       C  0.87560643  0.64890734  0.13254205    -0.17100
C2433       C  0.81475327  0.65040899  0.13500514    -0.16700
C2434       C  0.87762831  0.70941764  0.13363961    -0.17000
C2435       C  0.52128894  0.00518510  0.20855953     0.45700
H2436       H  0.52101341  0.00465687  0.19404538    -0.03300
C2437       C  0.51999262  0.00431477  0.24260798     0.45700
H2438       H  0.51909868  0.00387673  0.25714171    -0.03300
C2439       C  0.56180890  0.52274401  0.21768103    -0.17000
C2440       C  0.49871652  0.52157937  0.21570811    -0.16800
C2441       C  0.50162097  0.96525348  0.21634719    -0.17200
C2442       C  0.55917082  0.52334209  0.23573856    -0.17100
C2443       C  0.49692142  0.52160090  0.23356687    -0.16700
C2444       C  0.50110546  0.96496174  0.23423106    -0.17000
O2445       O  0.78107933  0.57998479  0.36414559    -0.80700
O2446       O  0.88275837  0.71468866  0.31555881    -0.65300
O2447       O  0.85120992  0.64144179  0.35160937    -1.11900
C2448       C  0.81384460  0.72276894  0.37930744     1.06200
O2449       O  0.91468040  0.75899256  0.33540896    -0.78600
O2450       O  0.90898004  0.75011287  0.37003623    -0.66100
Ni2451     Ni  0.82014815  0.58870078  0.34666623     1.34900
C2452       C  0.90605741  0.72397738  0.37983167     0.85000
O2453       O  0.88735516  0.65186734  0.31889646    -0.79100
O2454       O  0.85667903  0.59240184  0.32907752    -0.89400
C2455       C  0.90655172  0.74902405  0.31948328     0.84500
O2456       O  0.78663190  0.59071564  0.32909711    -0.67600
O2457       O  0.83863468  0.74863951  0.36936501    -0.86900
C2458       C  0.78902053  0.61681615  0.31938753     0.85400
C2459       C  0.88045584  0.61787244  0.31867857     1.06900
H2460       H  0.82080445  0.69608543  0.34176807     0.38700
O2461       O  0.84454607  0.69950252  0.34729604    -1.09500
O2462       O  0.87719532  0.69036711  0.37907815    -0.66200
Ni2463     Ni  0.82893706  0.66436946  0.36581662     1.26300
O2464       O  0.81754704  0.65060779  0.32009074    -0.66400
O2465       O  0.80736340  0.68893025  0.37939025    -0.78700
C2466       C  0.78720538  0.59237846  0.37986431     0.84800
O2467       O  0.81207394  0.62662556  0.38328012    -0.65900
Ni2468     Ni  0.87582406  0.75205768  0.35230571     1.27400
Ni2469     Ni  0.86642905  0.67655739  0.33292501     1.26100
H2470       H  0.87505391  0.64518390  0.35716938     0.39300
O2471       O  0.55222236  0.60494307  0.00234087    -0.80700
O2472       O  0.99142417  0.95519901  0.04902663    -0.65300
O2473       O  0.53946290  0.53593128  0.01555888    -1.11900
C2474       C  0.92072664  0.96208687  0.98299812     1.06200
O2475       O  0.95268073  0.90714582  0.03131508    -0.78600
O2476       O  0.99189903  0.93469373  0.00073176    -0.66100
Ni2477     Ni  0.56348550  0.58728328  0.02356685     1.34900
C2478       C  0.51814516  0.96425378  0.98849056     0.85000
O2479       O  0.56279798  0.51708577  0.04682416    -0.79100
O2480       O  0.58050054  0.57784283  0.04572796    -0.89400
C2481       C  0.96836778  0.92009998  0.04620781     0.84500
O2482       O  0.51600946  0.57998511  0.03331175    -0.67600
O2483       O  0.92805587  0.93669926  0.98787858    -0.86900
C2484       C  0.99624796  0.55118468  0.04699863     0.85400
C2485       C  0.58322948  0.55086085  0.05241167     1.06900
H2486       H  0.94825915  0.97998596  0.02507850     0.38700
O2487       O  0.96741911  0.97690850  0.01861208    -1.09500
O2488       O  0.51371831  0.99284415  0.98634444    -0.66200
Ni2489     Ni  0.99485215  0.51439188  0.00260562     1.26300
O2490       O  0.99883421  0.52166460  0.04927504    -0.66400
O2491       O  0.94096740  0.99590581  0.98863828    -0.78700
C2492       C  0.53774953  0.59152539  0.98731508     0.84800
O2493       O  0.51700102  0.55628907  0.98428262    -0.65900
Ni2494     Ni  0.94346958  0.92603507  0.01004197     1.27400
Ni2495     Ni  0.51835180  0.99824738  0.03250087     1.26100
H2496       H  0.55899895  0.53243067  0.00956986     0.39300
C2497       C  0.65717070  0.59186820  0.25777076    -0.27400
C2498       C  0.65812023  0.56945953  0.27139769     0.02200
C2499       C  0.62482069  0.53364902  0.27420093     0.30300
C2500       C  0.59263208  0.51968085  0.26270893    -0.19200
C2501       C  0.59273070  0.54092397  0.24838545    -0.28600
C2502       C  0.62445217  0.57808772  0.24649328     0.44400
C2503       C  0.69381788  0.58326453  0.28260654     0.05500
O2504       O  0.62304984  0.51271805  0.28850343    -0.57100
H2505       H  0.56776798  0.49173959  0.26487772     0.18500
O2506       O  0.62407420  0.60082939  0.23349721    -0.63800
H2507       H  0.68209204  0.61985799  0.25569232     0.16900
C2508       C  0.71056354  0.56036177  0.28555724     0.29200
C2509       C  0.74131417  0.57169829  0.29763409    -0.24700
C2510       C  0.75739221  0.60672395  0.30631582    -0.24000
C2511       C  0.74302661  0.63116168  0.30227561     0.40600
C2512       C  0.71099864  0.61910058  0.29068942    -0.26400
O2513       O  0.69712210  0.52678314  0.27667913    -0.58300
H2514       H  0.75302658  0.55317601  0.30006445     0.16300
O2515       O  0.75862335  0.66593836  0.31026191    -0.59800
H2516       H  0.69898859  0.63739232  0.28833733     0.14700
H2517       H  0.61371285  0.61594311  0.23904685     0.46600
H2518       H  0.70981834  0.53380198  0.26507825     0.41900
H2519       H  0.77855332  0.68386883  0.30202390     0.45400
H2520       H  0.62083956  0.48909477  0.28377112     0.36900
C2521       C  0.96666333  0.84290855  0.29660291    -0.27400
C2522       C  0.95209906  0.83311762  0.27949081     0.02200
C2523       C  0.92464344  0.79540020  0.27520941     0.30300
C2524       C  0.91134153  0.76787105  0.28819311    -0.19200
C2525       C  0.92460247  0.77772158  0.30561858    -0.28600
C2526       C  0.95294762  0.81572449  0.30969155     0.44400
C2527       C  0.96393861  0.86323076  0.26658753     0.05500
O2528       O  0.91064436  0.78529170  0.25839312    -0.57100
H2529       H  0.88965640  0.73901505  0.28469276     0.18500
O2530       O  0.96723803  0.82684136  0.32641428    -0.63800
H2531       H  0.98780901  0.87205532  0.29994207     0.16900
C2532       C  0.93888070  0.87737361  0.26254737     0.29200
C2533       C  0.95169387  0.90819044  0.25142577    -0.24700
C2534       C  0.98952745  0.92535936  0.24448745    -0.24000
C2535       C  0.50819052  0.91357477  0.24851677     0.40600
C2536       C  0.00160360  0.88002717  0.25943061    -0.26400
O2537       O  0.90222066  0.86177334  0.26975254    -0.58300
H2538       H  0.93237629  0.91913323  0.24844642     0.16300
O2539       O  0.54424461  0.92697326  0.24088169    -0.59800
H2540       H  0.51168596  0.87008207  0.26274915     0.14700
H2541       H  0.95158459  0.83742600  0.33142719     0.46600
H2542       H  0.90620457  0.87556162  0.28098726     0.41900
H2543       H  0.56337375  0.93251223  0.25055654     0.45400
H2544       H  0.88638481  0.78696825  0.25790291     0.36900
C2545       C  0.92513182  0.60920395  0.27610489    -0.27400
C2546       C  0.93172772  0.57937807  0.27995728     0.02200
C2547       C  0.92345511  0.56380516  0.29680960     0.30300
C2548       C  0.90785270  0.57738681  0.30939999    -0.19200
C2549       C  0.90021579  0.60659011  0.30550311    -0.28600
C2550       C  0.90922386  0.62266941  0.28867516     0.44400
C2551       C  0.94717217  0.56444702  0.26638916     0.05500
O2552       O  0.93167944  0.53604647  0.30121862    -0.57100
H2553       H  0.90155750  0.56486755  0.32227040     0.18500
O2554       O  0.90142882  0.65063875  0.28416666    -0.63800
H2555       H  0.93142475  0.62142150  0.26317073     0.16900
C2556       C  0.92531867  0.52638989  0.26082832     0.29200
C2557       C  0.94196516  0.51168498  0.24938643    -0.24700
C2558       C  0.97996046  0.53471512  0.24302992    -0.24000
C2559       C  0.00122529  0.57309595  0.24794039     0.40600
C2560       C  0.98477243  0.58780982  0.25955292    -0.26400
O2561       O  0.88799011  0.50317216  0.26681384    -0.58300
H2562       H  0.92541980  0.48208930  0.24569932     0.16300
O2563       O  0.53761455  0.60157538  0.23959710    -0.59800
H2564       H  0.00189989  0.61712132  0.26371927     0.14700
H2565       H  0.87379148  0.63720826  0.27987021     0.46600
H2566       H  0.87047956  0.50631491  0.25846199     0.41900
H2567       H  0.53263088  0.61465506  0.22990604     0.45400
H2568       H  0.90578413  0.51250396  0.30196187     0.36900
C2569       C  0.90268000  0.80432656  0.11371910    -0.27400
C2570       C  0.92504627  0.80551799  0.09929012     0.02200
C2571       C  0.93205481  0.77548622  0.09634647     0.30300
C2572       C  0.91694450  0.74487604  0.10781009    -0.19200
C2573       C  0.89424126  0.74334911  0.12221096    -0.28600
C2574       C  0.88681413  0.77330549  0.12501338     0.44400
C2575       C  0.93656347  0.83560595  0.08614403     0.05500
O2576       O  0.95352196  0.77579233  0.08222808    -0.57100
H2577       H  0.92282655  0.72208598  0.10538905     0.18500
O2578       O  0.86329790  0.77210207  0.13843853    -0.63800
H2579       H  0.89623290  0.82683439  0.11583349     0.16900
C2580       C  0.91336488  0.82834060  0.07101641     0.29200
C2581       C  0.92412433  0.85621676  0.05838300    -0.24700
C2582       C  0.95805643  0.89210356  0.06048464    -0.24000
C2583       C  0.98113384  0.89958001  0.07584031     0.40600
C2584       C  0.97030488  0.87132424  0.08853273    -0.26400
O2585       O  0.88019995  0.79374527  0.06836791    -0.58300
H2586       H  0.90552929  0.84955474  0.04685448     0.16300
O2587       O  0.49170921  0.94327484  0.08295208    -0.59800
H2588       H  0.98844662  0.87713876  0.10015759     0.14700
H2589       H  0.83770191  0.76532959  0.13290127     0.46600
H2590       H  0.85879415  0.79566567  0.07415945     0.41900
H2591       H  0.47058697  0.94929084  0.08499540     0.45400
H2592       H  0.93380957  0.76112175  0.07294929     0.36900
C2593       C  0.65758322  0.55046929  0.08451188    -0.27400
C2594       C  0.67142554  0.58551293  0.09307263     0.02200
C2595       C  0.65296835  0.60662766  0.08946488     0.30300
C2596       C  0.62354429  0.59420573  0.07663665    -0.19200
C2597       C  0.61111162  0.56024210  0.06732739    -0.28600
C2598       C  0.62744971  0.53761702  0.07183062     0.44400
C2599       C  0.70719477  0.60160630  0.10446157     0.05500
O2600       O  0.66426749  0.64012377  0.09807182    -0.57100
H2601       H  0.61083709  0.61172862  0.07378444     0.18500
O2602       O  0.61540573  0.50370287  0.06349538    -0.63800
H2603       H  0.67137947  0.53378398  0.08702372     0.16900
C2604       C  0.71183106  0.58050042  0.11779434     0.29200
C2605       C  0.74677636  0.59647640  0.12774317    -0.24700
C2606       C  0.77707351  0.63379683  0.12492415    -0.24000
C2607       C  0.77209807  0.65489743  0.11174151     0.40600
C2608       C  0.73783233  0.63867094  0.10151190    -0.26400
O2609       O  0.68197227  0.54475537  0.12153213    -0.58300
H2610       H  0.75037342  0.57923278  0.13737602     0.16300
O2611       O  0.80060426  0.69156773  0.10870445    -0.59800
H2612       H  0.73533738  0.65520501  0.09110412     0.14700
H2613       H  0.63315258  0.50980523  0.05337362     0.46600
H2614       H  0.69125663  0.52750787  0.11754855     0.41900
H2615       H  0.79487642  0.70696285  0.11691560     0.45400
H2616       H  0.64734589  0.63312781  0.10853026     0.36900
C2617       C  0.88293690  0.59128753  0.09535171    -0.27400
C2618       C  0.92181643  0.59925884  0.09729323     0.02200
C2619       C  0.94553773  0.62344383  0.11092080     0.30300
C2620       C  0.93034010  0.63977006  0.12224021    -0.19200
C2621       C  0.89128030  0.63150133  0.12040368    -0.28600
C2622       C  0.86747938  0.60692069  0.10688606     0.44400
C2623       C  0.93799937  0.58412986  0.08430446     0.05500
O2624       O  0.98411104  0.63274588  0.11268237    -0.57100
H2625       H  0.94918248  0.65916913  0.13239138     0.18500
O2626       O  0.82903240  0.59782541  0.10486135    -0.63800
H2627       H  0.86452480  0.57279255  0.08485369     0.16900
C2628       C  0.95136011  0.55938774  0.08913670     0.29200
C2629       C  0.96849792  0.54721053  0.07663158    -0.24700
C2630       C  0.97281814  0.55972001  0.05926147    -0.24000
C2631       C  0.95802815  0.58342130  0.05436979     0.40600
C2632       C  0.94049592  0.59514018  0.06683755    -0.26400
O2633       O  0.94848849  0.54758090  0.10609112    -0.58300
H2634       H  0.97980756  0.52914859  0.08070061     0.16300
O2635       O  0.46642754  0.60576309  0.03582233    -0.59800
H2636       H  0.43577879  0.62478973  0.06120073     0.14700
H2637       H  0.81419544  0.57767411  0.11348490     0.46600
H2638       H  0.92189391  0.52494815  0.10689893     0.41900
H2639       H  0.49009566  0.63135841  0.03642618     0.45400
H2640       H  0.98490545  0.61862213  0.12302267     0.36900
C2641       C  0.92356975  0.53249466  0.19215245    -0.27400
C2642       C  0.94661998  0.56903736  0.18542312     0.02200
C2643       C  0.98788829  0.58730366  0.18755567     0.30300
C2644       C  0.50587889  0.57301759  0.19627340    -0.19200
C2645       C  0.98199757  0.53360755  0.20369665    -0.28600
C2646       C  0.94096235  0.51479281  0.20120168     0.44400
C2647       C  0.92751599  0.58851373  0.17688028     0.05500
O2648       O  0.51523068  0.62398582  0.17805012    -0.57100
H2649       H  0.53732340  0.58671985  0.19814418     0.18500
O2650       O  0.91376862  0.98330055  0.21317758    -0.63800
H2651       H  0.89184221  0.51798904  0.19090739     0.16900
C2652       C  0.89812548  0.57043892  0.16384516     0.29200
C2653       C  0.88164012  0.58997798  0.15575690    -0.24700
C2654       C  0.89437318  0.62781317  0.16020121    -0.24000
C2655       C  0.92281112  0.64549755  0.17354789     0.40600
C2656       C  0.93881728  0.62580823  0.18186749    -0.26400
O2657       O  0.88681107  0.53442391  0.15826432    -0.58300
H2658       H  0.85924419  0.57565195  0.14572289     0.16300
O2659       O  0.93596735  0.68235557  0.17827530    -0.59800
H2660       H  0.96051681  0.63995627  0.19218007     0.14700
H2661       H  0.90068568  0.98909175  0.22275326     0.46600
H2662       H  0.85966007  0.51836419  0.16259263     0.41900
H2663       H  0.95731899  0.69766759  0.16998440     0.45400
H2664       H  0.51773448  0.61638454  0.16599982     0.36900
C2665       C  0.72833381  0.63079405  0.17871326    -0.27400
C2666       C  0.71421424  0.59324171  0.18394194     0.02200
C2667       C  0.73659304  0.57594887  0.18010768     0.30300
C2668       C  0.77179223  0.59591408  0.17085451    -0.19200
C2669       C  0.78424957  0.63242260  0.16478474    -0.28600
C2670       C  0.76275784  0.65013577  0.16899988     0.44400
C2671       C  0.67471157  0.57204686  0.19205577     0.05500
O2672       O  0.72261268  0.53864165  0.18393774    -0.57100
H2673       H  0.78814653  0.58201667  0.16745169     0.18500
O2674       O  0.77499168  0.68619256  0.16353011    -0.63800
H2675       H  0.71188932  0.64478998  0.18171927     0.16900
C2676       C  0.66798287  0.55145397  0.20759243     0.29200
C2677       C  0.63040284  0.53301431  0.21491266    -0.24700
C2678       C  0.59970199  0.53744561  0.20795602    -0.24000
C2679       C  0.60627268  0.55711788  0.19210146     0.40600
C2680       C  0.64319984  0.57348294  0.18419656    -0.26400
O2681       O  0.69811134  0.55033339  0.21614515    -0.58300
H2682       H  0.62583888  0.51638371  0.22652542     0.16300
O2683       O  0.57706384  0.56092983  0.18424311    -0.59800
H2684       H  0.64749239  0.58836342  0.17200048     0.14700
H2685       H  0.76269239  0.68316576  0.15181801     0.46600
H2686       H  0.70992675  0.57275805  0.22405255     0.41900
H2687       H  0.58797844  0.58848069  0.18274398     0.45400
H2688       H  0.74146986  0.53859227  0.19260068     0.36900
C2689       C  0.93312626  0.87231393  0.18985070    -0.27400
C2690       C  0.95461687  0.85347872  0.18850264     0.02200
C2691       C  0.99334583  0.87123273  0.19533969     0.30300
C2692       C  0.50998172  0.91443392  0.20291608    -0.19200
C2693       C  0.98756393  0.92473729  0.20532154    -0.28600
C2694       C  0.94916785  0.90740489  0.19841317     0.44400
C2695       C  0.93652243  0.81553872  0.17993493     0.05500
O2696       O  0.51779131  0.86274457  0.19390788    -0.57100
H2697       H  0.54035044  0.92926993  0.20733626     0.18500
O2698       O  0.92684378  0.92423712  0.20024036    -0.63800
H2699       H  0.90363365  0.85960333  0.18441358     0.16900
C2700       C  0.89855744  0.78630854  0.18442896     0.29200
C2701       C  0.88154698  0.75140293  0.17562093    -0.24700
C2702       C  0.90187936  0.74498786  0.16231343    -0.24000
C2703       C  0.94060485  0.77331171  0.15851523     0.40600
C2704       C  0.95732169  0.80842350  0.16704615    -0.26400
O2705       O  0.87761723  0.79167480  0.19726190    -0.58300
H2706       H  0.85185620  0.72973723  0.17877687     0.16300
O2707       O  0.96202143  0.76727722  0.14616855    -0.59800
H2708       H  0.98644923  0.83038879  0.16334136     0.14700
H2709       H  0.91352784  0.91532033  0.21163040     0.46600
H2710       H  0.88603635  0.78522233  0.20833547     0.41900
H2711       H  0.97621534  0.75683402  0.15268531     0.45400
H2712       H  0.51238491  0.84733243  0.20458631     0.36900
C2713       C  0.83033274  0.90168962  0.95479579    -0.27400
C2714       C  0.82809143  0.92863224  0.94452209     0.02200
C2715       C  0.85579803  0.96722654  0.94715258     0.30300
C2716       C  0.88578589  0.97825511  0.95982729    -0.19200
C2717       C  0.88849739  0.95102177  0.96993861    -0.28600
C2718       C  0.85997844  0.91239263  0.96734517     0.44400
C2719       C  0.79542161  0.91536028  0.93168906     0.05500
O2720       O  0.85389062  0.99424859  0.93738632    -0.57100
H2721       H  0.90714369  0.00799854  0.96158290     0.18500
O2722       O  0.85975172  0.88472463  0.97746980    -0.63800
H2723       H  0.80851499  0.87199905  0.95323413     0.16900
C2724       C  0.79063518  0.88933177  0.91840413     0.29200
C2725       C  0.75656811  0.87266839  0.90797826    -0.24700
C2726       C  0.72686786  0.88148795  0.91067635    -0.24000
C2727       C  0.73198171  0.90803810  0.92372865     0.40600
C2728       C  0.76626479  0.92500781  0.93405254    -0.26400
O2729       O  0.81928178  0.88024775  0.91550797    -0.58300
H2730       H  0.75300975  0.85230325  0.89796132     0.16300
O2731       O  0.70407465  0.91824091  0.92618996    -0.59800
H2732       H  0.76948372  0.94475063  0.94432775     0.14700
H2733       H  0.87179572  0.87323847  0.97014738     0.46600
H2734       H  0.80912682  0.85482835  0.92060999     0.41900
H2735       H  0.68983418  0.90487552  0.93687092     0.45400
H2736       H  0.86745281  0.99540565  0.92632525     0.36900
C2737       C  0.55971649  0.63846161  0.94269580    -0.27400
C2738       C  0.57105713  0.67572665  0.94755259     0.02200
C2739       C  0.56837006  0.68427590  0.96512029     0.30300
C2740       C  0.55592714  0.65610933  0.97770867    -0.19200
C2741       C  0.54621250  0.61904045  0.97313161    -0.28600
C2742       C  0.54750002  0.61014830  0.95536393     0.44400
C2743       C  0.58688380  0.70608261  0.93444518     0.05500
O2744       O  0.57737700  0.72008121  0.97003479    -0.57100
H2745       H  0.55447005  0.66355549  0.99119938     0.18500
O2746       O  0.53819309  0.57436649  0.95030081    -0.63800
H2747       H  0.56152402  0.63161900  0.92914583     0.16900
C2748       C  0.62631229  0.73550710  0.93551507     0.29200
C2749       C  0.64015094  0.76582741  0.92400475    -0.24700
C2750       C  0.61524077  0.76716489  0.91119788    -0.24000
C2751       C  0.57587970  0.73745281  0.90992970     0.40600
C2752       C  0.56200901  0.70702887  0.92150650    -0.26400
O2753       O  0.65130494  0.73521891  0.94802675    -0.58300
H2754       H  0.67044398  0.78853613  0.92513024     0.16300
O2755       O  0.55021526  0.73929670  0.89828562    -0.59800
H2756       H  0.53145600  0.68479944  0.92077596     0.14700
H2757       H  0.56319002  0.57407491  0.95119800     0.46600
H2758       H  0.66263180  0.72072161  0.94269470     0.41900
H2759       H  0.54166364  0.71739808  0.89021651     0.45400
H2760       H  0.60366263  0.73153270  0.97574620     0.36900
C2761       C  0.57182980  0.87412575  0.93679228    -0.27400
C2762       C  0.58696699  0.91338959  0.93618781     0.02200
C2763       C  0.61442253  0.93445894  0.92314520     0.30300
C2764       C  0.62612276  0.91611329  0.91105899    -0.19200
C2765       C  0.61127441  0.87701432  0.91196244    -0.28600
C2766       C  0.58408345  0.85607746  0.92497252     0.44400
C2767       C  0.57443991  0.93141677  0.94972572     0.05500
O2768       O  0.63206711  0.97313804  0.92293811    -0.57100
H2769       H  0.64804347  0.93266311  0.90140985     0.18500
O2770       O  0.56984872  0.81798931  0.92645663    -0.63800
H2771       H  0.55063511  0.85735170  0.94664960     0.16900
C2772       C  0.55921084  0.95500451  0.94526928     0.29200
C2773       C  0.54359334  0.96785497  0.95826893    -0.24700
C2774       C  0.54165791  0.95658670  0.97575319    -0.24000
C2775       C  0.55828668  0.93424737  0.98027931     0.40600
C2776       C  0.57459787  0.92209926  0.96737564    -0.26400
O2777       O  0.55724069  0.96387618  0.92816546    -0.58300
H2778       H  0.01996803  0.97535962  0.95412462     0.16000
O2779       O  0.55759471  0.92299334  0.99719743    -0.59800
H2780       H  0.58646271  0.90430650  0.97112600     0.14700
H2781       H  0.54744203  0.80578108  0.91807132     0.46600
H2782       H  0.02093386  0.93362682  0.92385948     0.41900
H2783       H  0.58223434  0.94322548  0.00267622     0.45400
H2784       H  0.62398487  0.97924215  0.91167345     0.36900
C2785       C  0.54999105  0.88241526  0.86574473    -0.27400
C2786       C  0.57213532  0.91108677  0.85379617     0.02200
C2787       C  0.61131184  0.92079042  0.85056400     0.30300
C2788       C  0.62813934  0.90268577  0.85965373    -0.19200
C2789       C  0.60632449  0.87490691  0.87202273    -0.28600
C2790       C  0.56667935  0.86416984  0.87472057     0.44400
C2791       C  0.55409379  0.93087137  0.84495896     0.05500
O2792       O  0.63339100  0.94806135  0.83863219    -0.57100
H2793       H  0.65855388  0.91095933  0.85733989     0.18500
O2794       O  0.54401113  0.83602942  0.88618047    -0.63800
H2795       H  0.51975175  0.87447691  0.86827142     0.16900
C2796       C  0.51993803  0.91076898  0.83451645     0.29200
C2797       C  0.00277173  0.92829136  0.82774432    -0.24700
C2798       C  0.52017741  0.96915666  0.82843991    -0.24000
C2799       C  0.55374981  0.98916511  0.83916554     0.40600
C2800       C  0.57071011  0.97007183  0.84722548    -0.26400
O2801       O  0.00145246  0.87043992  0.83383556    -0.58300
H2802       H  0.97689989  0.91274446  0.81948010     0.16300
O2803       O  0.56207260  0.52220887  0.84468076    -0.59800
H2804       H  0.59687416  0.98586352  0.85528710     0.14700
H2805       H  0.53622490  0.81207254  0.87979967     0.46600
H2806       H  0.01346500  0.86703379  0.82312585     0.41900
H2807       H  0.54869086  0.52339159  0.85540625     0.45400
H2808       H  0.62934429  0.93421966  0.82740952     0.36900
C2809       C  0.58880060  0.64605192  0.83565648    -0.27400
C2810       C  0.56597017  0.65628802  0.84582235     0.02200
C2811       C  0.52555164  0.63012416  0.84775416     0.30300
C2812       C  0.50834800  0.59489963  0.83918568    -0.19200
C2813       C  0.53089854  0.58536297  0.82849717    -0.28600
C2814       C  0.57158089  0.61089583  0.82705997     0.44400
C2815       C  0.58436404  0.69437512  0.85421552     0.05500
O2816       O  0.50250545  0.63896680  0.85779660    -0.57100
H2817       H  0.97702340  0.57772200  0.84083123     0.18500
O2818       O  0.59454285  0.60218527  0.81687320    -0.63800
H2819       H  0.61990206  0.66575267  0.83404499     0.16900
C2820       C  0.61590493  0.70641073  0.86617565     0.29200
C2821       C  0.63134093  0.74154954  0.87466956    -0.24700
C2822       C  0.61596597  0.76534178  0.87135108    -0.24000
C2823       C  0.58570234  0.75414824  0.85879915     0.40600
C2824       C  0.56987327  0.71873841  0.85044993    -0.26400
O2825       O  0.63029512  0.68309387  0.87038879    -0.58300
H2826       H  0.65489115  0.74993029  0.88419289     0.16300
O2827       O  0.56949557  0.77636140  0.85555638    -0.59800
H2828       H  0.54584401  0.71003262  0.84115983     0.14700
H2829       H  0.60109771  0.58634676  0.82432402     0.46600
H2830       H  0.65545439  0.69329554  0.86403980     0.41900
H2831       H  0.58216037  0.79014979  0.84471036     0.45400
H2832       H  0.50458455  0.63106417  0.86980420     0.36900
C2833       C  0.84727798  0.97302524  0.83495685    -0.27400
C2834       C  0.83812799  0.94308946  0.84637716     0.02200
C2835       C  0.86621853  0.93214584  0.84965792     0.30300
C2836       C  0.90216408  0.94987778  0.84090909    -0.19200
C2837       C  0.91040715  0.97838684  0.82875908    -0.28600
C2838       C  0.88322315  0.99079666  0.82622738     0.44400
C2839       C  0.79905464  0.92315190  0.85466811     0.05500
O2840       O  0.85849702  0.90373768  0.86117385    -0.57100
H2841       H  0.92304754  0.94040249  0.84311939     0.18500
O2842       O  0.89116235  0.01974613  0.81501103    -0.63800
H2843       H  0.82613099  0.98208842  0.83255263     0.16900
C2844       C  0.78788819  0.94191949  0.86676493     0.29200
C2845       C  0.75124570  0.92236085  0.87480628    -0.24700
C2846       C  0.72557206  0.88379582  0.87121524    -0.24000
C2847       C  0.73612193  0.86531368  0.85866851     0.40600
C2848       C  0.77283922  0.88495537  0.85056869    -0.26400
O2849       O  0.81309523  0.97905211  0.87119769    -0.58300
H2850       H  0.74334294  0.93702131  0.88434281     0.16300
O2851       O  0.71187179  0.82757884  0.85505471    -0.59800
H2852       H  0.78110487  0.87027131  0.84120893     0.14700
H2853       H  0.91024362  0.04314894  0.82137808     0.46600
H2854       H  0.82866288  0.97831661  0.88129250     0.41900
H2855       H  0.69722680  0.82661758  0.84427176     0.45400
H2856       H  0.86626405  0.91627572  0.87283272     0.36900
C2857       C  0.80053206  0.95958550  0.74691115    -0.27400
C2858       C  0.81762623  0.93732830  0.75026995     0.02200
C2859       C  0.80304810  0.90251311  0.74130221     0.30300
C2860       C  0.77178234  0.89048872  0.72927423    -0.19200
C2861       C  0.75514876  0.91315726  0.72571772    -0.28600
C2862       C  0.76973357  0.94788737  0.73478507     0.44400
C2863       C  0.85068585  0.95110606  0.76309660     0.05500
O2864       O  0.81947094  0.88028955  0.74400319    -0.57100
H2865       H  0.76096584  0.86368390  0.72249197     0.18500
O2866       O  0.75353138  0.97034279  0.73220112    -0.63800
H2867       H  0.81084773  0.98609678  0.75389703     0.16900
C2868       C  0.88360154  0.98772743  0.76175024     0.29200
C2869       C  0.91367310  0.00108262  0.77431723    -0.24700
C2870       C  0.91217018  0.97826365  0.78823752    -0.24000
C2871       C  0.87975150  0.94127043  0.78942062     0.40600
C2872       C  0.84908830  0.92814238  0.77702823    -0.26400
O2873       O  0.88693557  0.01056780  0.74803655    -0.58300
H2874       H  0.93901016  0.52872653  0.77280688     0.16300
O2875       O  0.87802087  0.91745716  0.80235563    -0.59800
H2876       H  0.82398874  0.89993498  0.77830191     0.14700
H2877       H  0.73213519  0.96174522  0.74086281     0.46600
H2878       H  0.89651285  0.50181610  0.73831537     0.41900
H2879       H  0.89181783  0.90472687  0.79763392     0.45400
H2880       H  0.84243317  0.89046754  0.73613775     0.36900
C2881       C  0.54871061  0.67246745  0.73911787    -0.27400
C2882       C  0.56978572  0.67949776  0.75481466     0.02200
C2883       C  0.60233223  0.71556085  0.75820834     0.30300
C2884       C  0.61442510  0.74383554  0.74555450    -0.19200
C2885       C  0.59419865  0.73649772  0.72945270    -0.28600
C2886       C  0.56041375  0.70056449  0.72653012     0.44400
C2887       C  0.55757209  0.64843392  0.76732304     0.05500
O2888       O  0.62335985  0.72291839  0.77353755    -0.57100
H2889       H  0.64041960  0.77105760  0.74810859     0.18500
O2890       O  0.53899367  0.69215186  0.71125301    -0.63800
H2891       H  0.52329549  0.64482919  0.73653072     0.16900
C2892       C  0.53049888  0.64277697  0.78049183     0.29200
C2893       C  0.01737994  0.61160561  0.79272594    -0.24700
C2894       C  0.52906181  0.58489256  0.78897220    -0.24000
C2895       C  0.55643247  0.59075924  0.77587024     0.40600
C2896       C  0.57049544  0.62241467  0.76511244    -0.26400
O2897       O  0.01821792  0.66805246  0.78402165    -0.58300
H2898       H  0.99558088  0.60706434  0.80245019     0.16300
O2899       O  0.56921083  0.56550483  0.77335924    -0.59800
H2900       H  0.59101779  0.62638840  0.75483693     0.14700
H2901       H  0.51993522  0.70088786  0.71318582     0.46600
H2902       H  0.99492074  0.65846991  0.77615322     0.41900
H2903       H  0.59209977  0.57405123  0.78139280     0.45400
H2904       H  0.61003496  0.73121066  0.78193161     0.36900
C2905       C  0.56879119  0.93287602  0.73594434    -0.27400
C2906       C  0.56713174  0.92218666  0.75343500     0.02200
C2907       C  0.58253726  0.89897525  0.75817445     0.30300
C2908       C  0.60049256  0.88783147  0.74551085    -0.19200
C2909       C  0.60387899  0.90016448  0.72815445    -0.28600
C2910       C  0.58693215  0.92210620  0.72336883     0.44400
C2911       C  0.55037402  0.93683694  0.76650366     0.05500
O2912       O  0.57942868  0.88652253  0.77503249    -0.57100
H2913       H  0.61288686  0.87056365  0.74939660     0.18500
O2914       O  0.58818161  0.93346777  0.70642690    -0.63800
H2915       H  0.55673907  0.95046157  0.73209352     0.16900
C2916       C  0.57374703  0.96098939  0.78024324     0.29200
C2917       C  0.55860106  0.97787607  0.79128141    -0.24700
C2918       C  0.52019925  0.97110973  0.78880986    -0.24000
C2919       C  0.49677691  0.94677247  0.77513403     0.40600
C2920       C  0.51187531  0.92977317  0.76415119    -0.26400
O2921       O  0.61242758  0.46773010  0.78349308    -0.58300
H2922       H  0.57650273  0.49505659  0.80188088     0.16300
O2923       O  0.45874099  0.93864725  0.77268058    -0.59800
H2924       H  0.49364306  0.91139222  0.75358322     0.14700
H2925       H  0.56425183  0.91277888  0.70068362     0.46600
H2926       H  0.62808350  0.48997642  0.77600566     0.41900
H2927       H  0.95305683  0.94212740  0.76615544     0.45400
H2928       H  0.60651269  0.90030108  0.77997579     0.36900
C2929       C  0.71111769  0.75101379  0.44014431    -0.27400
C2930       C  0.74323984  0.77495376  0.42970914     0.02200
C2931       C  0.76011964  0.81444033  0.43149062     0.30300
C2932       C  0.74431422  0.82932799  0.44326158    -0.19200
C2933       C  0.71179329  0.80540025  0.45333890    -0.28600
C2934       C  0.69559491  0.76605313  0.45204889     0.44400
C2935       C  0.75837772  0.75876994  0.41662645     0.05500
O2936       O  0.79276161  0.83863803  0.42213314    -0.57100
H2937       H  0.75768727  0.85965795  0.44461534     0.18500
O2938       O  0.66359351  0.74217786  0.46180910    -0.63800
H2939       H  0.69750258  0.72061460  0.43880092     0.16900
C2940       C  0.76963304  0.73231064  0.42133911     0.29200
C2941       C  0.78628016  0.71953541  0.40884628    -0.24700
C2942       C  0.79226377  0.73316624  0.39167809    -0.24000
C2943       C  0.77976803  0.75860855  0.38685378     0.40600
C2944       C  0.76247089  0.77074968  0.39922177    -0.26400
O2945       O  0.76681292  0.72069246  0.43832993    -0.58300
H2946       H  0.79606141  0.70018649  0.41278147     0.16300
O2947       O  0.78368936  0.77121819  0.36999188    -0.59800
H2948       H  0.75275047  0.79011023  0.39525024     0.14700
H2949       H  0.67367803  0.73138593  0.47062292     0.46600
H2950       H  0.74429190  0.69440715  0.43838188     0.41900
H2951       H  0.80706035  0.79702498  0.37023486     0.45400
H2952       H  0.78337852  0.85004936  0.41330743     0.36900
C2953       C  0.55524109  0.76464848  0.42896417    -0.27400
C2954       C  0.52851400  0.77725513  0.43158361     0.02200
C2955       C  0.53452758  0.80227911  0.44549900     0.30300
C2956       C  0.56722610  0.81453484  0.45659873    -0.19200
C2957       C  0.59434207  0.80235146  0.45383888    -0.28600
C2958       C  0.58817591  0.77723930  0.43992063     0.44400
C2959       C  0.49538191  0.76526270  0.41921297     0.05500
O2960       O  0.00200446  0.80110104  0.44753780    -0.57100
H2961       H  0.57194313  0.83429112  0.46711745     0.18500
O2962       O  0.61431460  0.76506957  0.43686367    -0.63800
H2963       H  0.55089385  0.74554221  0.41819317     0.16900
C2964       C  0.00674411  0.77190761  0.40125228     0.29200
C2965       C  0.97650731  0.76097952  0.38887785    -0.24700
C2966       C  0.93768748  0.73349595  0.39285464    -0.24000
C2967       C  0.92945287  0.71683887  0.40954214     0.40600
C2968       C  0.95963612  0.72848986  0.42205768    -0.26400
O2969       O  0.52653780  0.82705360  0.40623914    -0.58300
H2970       H  0.98342506  0.77409476  0.37613616     0.16300
O2971       O  0.89170281  0.69084259  0.41409005    -0.59800
H2972       H  0.95288011  0.71624439  0.43498373     0.14700
H2973       H  0.60307980  0.74031790  0.44275536     0.46600
H2974       H  0.54676439  0.82599469  0.39898808     0.41900
H2975       H  0.88962760  0.66587014  0.41237678     0.45400
H2976       H  0.00974412  0.82320155  0.43990527     0.36900
C2977       C  0.75929781  0.54654806  0.42462707    -0.27400
C2978       C  0.73500989  0.00920748  0.42147657     0.02200
C2979       C  0.71506677  0.50237637  0.40267353     0.30300
C2980       C  0.73252323  0.53029916  0.38995892    -0.19200
C2981       C  0.76469790  0.56611897  0.39420201    -0.28600
C2982       C  0.77655962  0.57476362  0.41195398     0.44400
C2983       C  0.72196956  0.97569679  0.43255022     0.05500
O2984       O  0.67697511  0.97667045  0.40319909    -0.57100
H2985       H  0.72185415  0.52323878  0.37658274     0.18500
O2986       O  0.80688142  0.60967622  0.41690481    -0.63800
H2987       H  0.77064150  0.55264637  0.43793177     0.16900
C2988       C  0.73706625  0.95155252  0.42953797     0.29200
C2989       C  0.72557558  0.92002725  0.44003831    -0.24700
C2990       C  0.69956051  0.91238623  0.45387250    -0.24000
C2991       C  0.68343374  0.93593117  0.45661462     0.40600
C2992       C  0.69465235  0.96743615  0.44589652    -0.26400
O2993       O  0.76030807  0.46111630  0.41589042    -0.58300
H2994       H  0.73769470  0.90193534  0.43757568     0.16300
O2995       O  0.65556094  0.92737485  0.46919750    -0.59800
H2996       H  0.68222329  0.98545772  0.44803586     0.14700
H2997       H  0.79425795  0.62472745  0.41980155     0.46600
H2998       H  0.74487718  0.44209030  0.40667151     0.41900
H2999       H  0.66828199  0.94774457  0.47816321     0.45400
H3000       H  0.68149552  0.95787441  0.39699317     0.36900
C3001       C  0.79473909  0.74900414  0.60069237    -0.27400
C3002       C  0.75475059  0.73657008  0.59795680     0.02200
C3003       C  0.73395740  0.71004636  0.58449517     0.30300
C3004       C  0.75321047  0.69598574  0.57420970    -0.19200
C3005       C  0.79291056  0.70770152  0.57734439    -0.28600
C3006       C  0.81372836  0.73451113  0.59061914     0.44400
C3007       C  0.73511141  0.75029017  0.60994302     0.05500
O3008       O  0.69523112  0.69856022  0.58105874    -0.57100
H3009       H  0.73695329  0.67539169  0.56397127     0.18500
O3010       O  0.85294920  0.74753987  0.59349166    -0.63800
H3011       H  0.81109582  0.76940321  0.61098465     0.16900
C3012       C  0.70362300  0.72482304  0.62031172     0.29200
C3013       C  0.68831017  0.73839925  0.63297104    -0.24700
C3014       C  0.70418017  0.77750364  0.63584189    -0.24000
C3015       C  0.73504812  0.80300567  0.62504150     0.40600
C3016       C  0.75041061  0.78928670  0.61234019    -0.26400
O3017       O  0.68854810  0.68656316  0.61868661    -0.58300
H3018       H  0.66429273  0.71791788  0.64082137     0.16300
O3019       O  0.75140599  0.84132618  0.62711937    -0.59800
H3020       H  0.77483535  0.80920888  0.60449274     0.14700
H3021       H  0.85419681  0.73438372  0.60411306     0.46600
H3022       H  0.70517692  0.68087377  0.62643670     0.41900
H3023       H  0.73707863  0.84851145  0.61869322     0.45400
H3024       H  0.68028456  0.67131000  0.58395808     0.36900
C3025       C  0.96371861  0.76282517  0.59452834    -0.27400
C3026       C  0.96920108  0.73972572  0.60638203     0.02200
C3027       C  0.94317563  0.70030047  0.60569512     0.30300
C3028       C  0.91216459  0.68475764  0.59354101    -0.19200
C3029       C  0.90732913  0.70774232  0.58148564    -0.28600
C3030       C  0.93325729  0.74703392  0.58201383     0.44400
C3031       C  0.50733408  0.75554101  0.61586100     0.05500
O3032       O  0.94794188  0.67663358  0.61676725    -0.57100
H3033       H  0.89204945  0.65453790  0.59339773     0.18500
O3034       O  0.92763014  0.77029547  0.57102409    -0.63800
H3035       H  0.98278419  0.79322466  0.59510556     0.16900
C3036       C  0.54600623  0.78432400  0.61230381     0.29200
C3037       C  0.57501512  0.79680948  0.62544775    -0.24700
C3038       C  0.56610370  0.78077017  0.64219358    -0.24000
C3039       C  0.52700865  0.75313581  0.64590555     0.40600
C3040       C  0.99449384  0.74701053  0.63709427    -0.26400
O3041       O  0.55632098  0.79847683  0.59574584    -0.58300
H3042       H  0.60496000  0.81781315  0.62225548     0.16300
O3043       O  0.51683453  0.73718701  0.66214396    -0.59800
H3044       H  0.96455544  0.72921010  0.64144044     0.14700
H3045       H  0.94937676  0.77958137  0.56251867     0.46600
H3046       H  0.55994582  0.82424600  0.59637743     0.41900
H3047       H  0.51188396  0.75477034  0.66917882     0.45400
H3048       H  0.96700771  0.67124277  0.61089685     0.36900
C3049       C  0.80571071  0.54833722  0.59188404    -0.27400
C3050       C  0.76978441  0.53438194  0.60048488     0.02200
C3051       C  0.74695600  0.55157295  0.59775243     0.30300
C3052       C  0.76058609  0.58284398  0.58675454    -0.19200
C3053       C  0.79642388  0.59665571  0.57812188    -0.28600
C3054       C  0.81898222  0.57912600  0.58060389     0.44400
C3055       C  0.75787691  0.50386500  0.61335380     0.05500
O3056       O  0.71249615  0.53937269  0.60659328    -0.57100
H3057       H  0.74345679  0.59667126  0.58513651     0.18500
O3058       O  0.85509940  0.59350235  0.57292601    -0.63800
H3059       H  0.82376729  0.53567128  0.59414231     0.16900
C3060       C  0.72322092  0.96602987  0.60862126     0.29200
C3061       C  0.71189107  0.93954424  0.62205743    -0.24700
C3062       C  0.72933009  0.95020637  0.63883499    -0.24000
C3063       C  0.75929399  0.98810021  0.64179074     0.40600
C3064       C  0.77961592  0.51123420  0.62893213    -0.26400
O3065       O  0.70506779  0.95498188  0.59254452    -0.58300
H3066       H  0.68868902  0.91077317  0.61941868     0.16300
O3067       O  0.77779690  0.99982356  0.65777288    -0.59800
H3068       H  0.80564557  0.53863609  0.63113438     0.14700
H3069       H  0.85387912  0.57246460  0.56591505     0.46600
H3070       H  0.72046546  0.94597539  0.58596231     0.41900
H3071       H  0.76474456  0.01212044  0.66370650     0.45400
H3072       H  0.69135285  0.52374281  0.59801214     0.36900
C3073       C  0.71264148  0.75786570  0.51236672    -0.27400
C3074       C  0.75278527  0.77117463  0.50983780     0.02200
C3075       C  0.77425634  0.80221945  0.49881207     0.30300
C3076       C  0.75540261  0.81918540  0.49037023    -0.19200
C3077       C  0.71510296  0.80556491  0.49275833    -0.28600
C3078       C  0.69382848  0.77492549  0.50398145     0.44400
C3079       C  0.77159497  0.75216151  0.51878471     0.05500
O3080       O  0.81348951  0.81580417  0.49602807    -0.57100
H3081       H  0.77216452  0.84278625  0.48176577     0.18500
O3082       O  0.65440411  0.76080948  0.50644014    -0.63800
H3083       H  0.69579217  0.73403400  0.52084204     0.16900
C3084       C  0.80034621  0.77091105  0.53193798     0.29200
C3085       C  0.81505257  0.75131004  0.54133427    -0.24700
C3086       C  0.80139764  0.71289708  0.53783255    -0.24000
C3087       C  0.77413598  0.69470745  0.52409375     0.40600
C3088       C  0.75898924  0.71416357  0.51485478    -0.26400
O3089       O  0.81337933  0.80805378  0.53604446    -0.58300
H3090       H  0.83663015  0.76593602  0.55164812     0.16300
O3091       O  0.76041193  0.65734607  0.52026681    -0.59800
H3092       H  0.73693222  0.69942234  0.50473037     0.14700
H3093       H  0.64110478  0.73685549  0.49959488     0.46600
H3094       H  0.79555227  0.80735970  0.54532390     0.41900
H3095       H  0.77595438  0.65737451  0.51010835     0.45400
H3096       H  0.81446480  0.80184467  0.48557446     0.36900
C3097       C  0.76434118  0.98099453  0.49682480    -0.27400
C3098       C  0.74634391  0.98576820  0.51164479     0.02200
C3099       C  0.71232875  0.95390297  0.51814900     0.30300
C3100       C  0.69526871  0.91925032  0.50904880    -0.19200
C3101       C  0.71219318  0.91524597  0.49369668    -0.28600
C3102       C  0.74857468  0.94589568  0.48838312     0.44400
C3103       C  0.76413613  0.52484827  0.52245316     0.05500
O3104       O  0.69533502  0.95628981  0.53333998    -0.57100
H3105       H  0.66836943  0.89575476  0.51387374     0.18500
O3106       O  0.76916422  0.94198934  0.47493085    -0.63800
H3107       H  0.79209304  0.50626620  0.49400339     0.16900
C3108       C  0.80486552  0.54624076  0.52625001     0.29200
C3109       C  0.82093166  0.58214175  0.53399510    -0.24700
C3110       C  0.79670462  0.59638177  0.53897108    -0.24000
C3111       C  0.75613506  0.57512733  0.53545568     0.40600
C3112       C  0.74024125  0.54005803  0.52689826    -0.26400
O3113       O  0.82909070  0.53193126  0.52293325    -0.58300
H3114       H  0.85218676  0.59825125  0.53681153     0.16300
O3115       O  0.73185263  0.58853369  0.54026546    -0.59800
H3116       H  0.70908533  0.52465934  0.52380119     0.14700
H3117       H  0.78219626  0.92885177  0.48005152     0.46600
H3118       H  0.82672255  0.51643906  0.53327398     0.41900
H3119       H  0.72154337  0.57732058  0.55185284     0.45400
H3120       H  0.70972191  0.95176751  0.54283850     0.36900
C3121       C  0.53133376  0.74082552  0.49913965    -0.27400
C3122       C  0.52178441  0.76130635  0.51089755     0.02200
C3123       C  0.54914742  0.79972299  0.51417362     0.30300
C3124       C  0.58523266  0.81730207  0.50549618    -0.19200
C3125       C  0.59433548  0.79715233  0.49336044    -0.28600
C3126       C  0.56731230  0.75843809  0.49039429     0.44400
C3127       C  0.98428696  0.74265047  0.52316735     0.05500
O3128       O  0.54115185  0.82000819  0.52613082    -0.57100
H3129       H  0.60547388  0.84705332  0.50779541     0.18500
O3130       O  0.57544575  0.73793469  0.47861183    -0.63800
H3131       H  0.51058841  0.71120188  0.49656449     0.16900
C3132       C  0.95567580  0.75299013  0.52000903     0.29200
C3133       C  0.92032175  0.73547460  0.52914982    -0.24700
C3134       C  0.91301266  0.70761979  0.54149898    -0.24000
C3135       C  0.94093042  0.69618119  0.54417843     0.40600
C3136       C  0.97637872  0.71377401  0.53505199    -0.26400
O3137       O  0.96206388  0.78023237  0.50802305    -0.58300
H3138       H  0.89878221  0.74408677  0.52680785     0.16300
O3139       O  0.93376801  0.66776498  0.55558933    -0.59800
H3140       H  0.49564391  0.70252765  0.53296067     0.14700
H3141       H  0.57934578  0.71985464  0.48568314     0.46600
H3142       H  0.95310941  0.76659837  0.49664836     0.41900
H3143       H  0.92019541  0.64415435  0.54850437     0.45400
H3144       H  0.53462987  0.83642736  0.51909569     0.36900
loop_ 
_geom_bond_atom_site_label_1 
_geom_bond_atom_site_label_2 
_geom_bond_distance 
_geom_bond_site_symmetry_2 
_ccdc_geom_bond_type 
C1            H2   1.111       .  S
C1            C7   1.540       .  S
C1            C6   1.542       .  S
C1            C5   1.542       .  S
C3            H4   1.111       .  S
C3            C9   1.531       .  S
C3            C8   1.530       .  S
C3           C10   1.526       .  S
C5            C8   1.374       .  D
C5          C776   1.482       .  S
C6            C9   1.375       .  D
C6          C728   1.488       .  S
C7           C10   1.368       .  D
C7          C752   1.477       .  S
C8          C671   1.476       .  S
C9          C647   1.481       .  S
C10         C695   1.475       .  S
C11          H12   1.111       .  S
C11          C17   1.528       .  S
C11          C16   1.529       .  S
C11          C15   1.530       .  S
C13          H14   1.111       .  S
C13          C19   1.550       .  S
C13          C18   1.541       .  S
C13          C20   1.549       .  S
C15          C18   1.370       .  D
C15         C575   1.473       .  S
C16          C19   1.379       .  D
C16         C632   1.489       .  S
C17          C20   1.376       .  D
C17         C599   1.488       .  S
C18         C719   1.489       .  S
C19         C743   1.495       .  S
C20         C767   1.488       .  S
O21         Ni27   1.926       .  S
O21          C42   1.270       .  A
O22         Ni45   1.922       .  S
O22          C31   1.269       .  A
O23         Ni27   1.903       .  S
O23         Ni45   1.911       .  S
O23         Ni39   1.912       .  S
O23          H46   0.966       .  S
C24          O41   1.281       .  A
C24          O33   1.276       .  A
C24         C551   1.484       .  S
O25         Ni44   1.915       .  S
O25          C31   1.267       .  A
O26         Ni44   1.907       .  S
O26          C28   1.268       .  A
Ni27         O30   1.922       .  S
Ni27         O32   1.902       .  S
C28          O38   1.274       .  A
C28         C503   1.488       .  S
O29         Ni45   1.917       .  S
O29          C35   1.277       .  A
O30          C35   1.278       .  A
C31         C704   1.486       .  S
O32          C34   1.266       .  A
O33         Ni44   1.911       .  S
C34          O40   1.271       .  A
C34         C680   1.481       .  S
C35         C656   1.487       .  S
H36          O37   0.966       .  S
O37         Ni45   1.918       .  S
O37         Ni39   1.903       .  S
O37         Ni44   1.898       .  S
O38         Ni39   1.935       .  S
Ni39         O43   1.919       .  S
Ni39         O41   1.932       .  S
O40         Ni45   1.931       .  S
C42          O43   1.271       .  A
C42         C527   1.485       .  S
C47          H48   1.111       .  S
C47          C52   1.531       .  S
C47         C839   1.531   1_545  S
C47         C837   1.531   1_545  S
C49          H50   1.111       .  S
C49          C55   1.541       .  S
C49         C840   1.542   1_545  S
C49         C842   1.544   1_545  S
C51         C833   1.534       .  S
C51          C54   1.373       .  D
C51        C2132   1.481       .  S
C52          C55   1.372       .  D
C52        C2108   1.477       .  S
C53         C833   1.533       .  S
C53          C56   1.378       .  D
C53         C512   1.490       .  S
C54         C835   1.540       .  S
C54        C2012   1.489       .  S
C55        C2027   1.489       .  S
C56         C835   1.543       .  S
C56         C479   1.481       .  S
C57          H58   1.110       .  S
C57          C63   1.541       .  S
C57          C62   1.543       .  S
C57          C61   1.542       .  S
C59          H60   1.111       .  S
C59          C65   1.533       .  S
C59          C64   1.528       .  S
C59          C66   1.525       .  S
C61          C64   1.373       .  D
C61         C464   1.485       .  S
C62          C65   1.377       .  D
C62         C488   1.488       .  S
C63          C66   1.370       .  D
C63         C431   1.475       .  S
C64         C392   1.480       .  S
C65         C368   1.483       .  S
C66         C407   1.480       .  S
C67          H68   1.111       .  S
C67          C73   1.544       .  S
C67          C72   1.535       .  S
C67          C71   1.539       .  S
C69          H70   1.111       .  S
C69          C75   1.530       .  S
C69          C74   1.536       .  S
C69          C76   1.536       .  S
C71          C74   1.377       .  D
C71         C296   1.486       .  S
C72          C75   1.369       .  D
C72         C311   1.472       .  S
C73          C76   1.379       .  D
C73         C344   1.492       .  S
C74         C263   1.487       .  S
C75         C248   1.484       .  S
C76         C215   1.488       .  S
C77          H78   1.110       .  S
C77          C83   1.541       .  S
C77         C868   1.548       .  S
C77         C867   1.552       .  S
C79          H80   1.112       .  S
C79          C86   1.529       .  S
C79         C871   1.526   1_455  S
C79         C870   1.534       .  S
C81         C863   1.547   1_545  S
C81          C84   1.386       .  D
C81         C320   1.498       .  S
C82         C863   1.543   1_645  S
C82          C85   1.366       .  D
C82        C1859   1.472       .  S
C83          C86   1.369       .  D
C83        C1907   1.482   1_455  S
C84         C865   1.533   1_545  S
C84         C143   1.484       .  S
C85         C865   1.521   1_645  S
C85        C1772   1.477       .  S
C86        C1748   1.477   1_455  S
O87         Ni93   1.927       .  S
O87         C108   1.272       .  A
O88        Ni111   1.902       .  S
O88          C97   1.266       .  A
O89         Ni93   1.902       .  S
O89        Ni111   1.900       .  S
O89        Ni105   1.910       .  S
O89         H112   0.966       .  S
C90         O107   1.276       .  A
C90          O99   1.277       .  A
C90         C584   1.473       .  S
O91        Ni110   1.927       .  S
O91          C97   1.270       .  A
O92        Ni110   1.903       .  S
O92          C94   1.269       .  A
Ni93         O96   1.917       .  S
Ni93         O98   1.911       .  S
C94         O104   1.272       .  A
C94         C608   1.489       .  S
O95        Ni111   1.921       .  S
O95         C101   1.277       .  A
O96         C101   1.278       .  A
C97         C167   1.477       .  S
O98         C100   1.269       .  A
O99        Ni110   1.918       .  S
C100        O106   1.265       .  A
C100        C152   1.470       .  S
C101        C191   1.476       .  S
H102        O103   0.966       .  S
O103       Ni111   1.907       .  S
O103       Ni105   1.903       .  S
O103       Ni110   1.897       .  S
O104       Ni105   1.929       .  S
Ni105       O109   1.911       .  S
Ni105       O107   1.914       .  S
O106       Ni111   1.911       .  S
C108        O109   1.269       .  A
C108        C623   1.488       .  S
O113       Ni119   1.917       .  S
O113        C134   1.270   1_554  A
O114      Ni1709   1.912       .  S
O114        C123   1.267       .  A
O115       Ni119   1.915       .  S
O115       Ni923   1.917   1_545  S
O115      Ni1703   1.927   1_455  S
O115        H138   0.967       .  S
C116        O133   1.276       .  A
C116        O125   1.275       .  A
C116        C359   1.476       .  S
O117       Ni136   1.923       .  S
O117        C123   1.269       .  A
O118       Ni136   1.905   1_556  S
O118       C1692   1.268       .  A
Ni119       O122   1.929       .  S
Ni119       O124   1.895       .  S
C120        O130   1.272       .  A
C120       O1690   1.268   1_455  A
C120        C416   1.474       .  S
O121       Ni923   1.915   1_545  S
O121        C127   1.268       .  A
O122        C127   1.270       .  A
C123        C224   1.483       .  S
O124       C1698   1.269   1_455  A
O125       Ni136   1.916   1_556  S
C126        O132   1.277       .  A
C126       O1696   1.267       .  A
C126        C272   1.481       .  S
C127        C239   1.481       .  S
H128        O129   0.965       .  S
O129       Ni136   1.909       .  S
O129      Ni1709   1.906       .  S
O129       Ni917   1.909       .  S
O130      Ni2489   1.929   1_456  S
Ni131      O2488   1.954   1_544  S
Ni131      O1707   1.908   1_554  S
Ni131       O919   1.915   1_544  S
Ni131      O1687   1.917       .  S
Ni131       O915   1.915   1_545  S
O132      Ni2495   1.951   1_545  S
O133       Ni917   1.922   1_556  S
C134        O135   1.270       .  A
C134        C383   1.488       .  S
O135      Ni1703   1.917   1_456  S
Ni137      O1686   1.910   1_455  S
Ni137       O907   1.914       .  S
Ni137      O2490   1.945   1_455  S
Ni137       O901   1.917       .  S
Ni137      O1701   1.911   1_455  S
C139        C140   1.404       .  A
C139        C144   1.403       .  A
C139        H149   1.083       .  S
C140        C145   1.475       .  S
C140        C141   1.405       .  A
C141        C142   1.392       .  A
C141        O146   1.373       .  S
C142        C143   1.401       .  A
C142        H147   1.081   1_545  S
C143        C144   1.411       .  A
C144        O148   1.371       .  S
C145        C150   1.408       .  A
C145        C154   1.402       .  A
O146        H162   0.992   1_545  S
O148        H159   0.991       .  S
C150        C151   1.394       .  A
C150        O155   1.372       .  S
C151        C152   1.400       .  A
C151        H156   1.084       .  S
C152        C153   1.410       .  A
C153        C154   1.401       .  A
C153        O157   1.372       .  S
C154        H158   1.084       .  S
O155        H160   0.992       .  S
O157        H161   0.992       .  S
C163        C164   1.400       .  A
C163        C168   1.397       .  A
C163        H173   1.084       .  S
C164        C169   1.471       .  S
C164        C165   1.404       .  A
C165        C166   1.400       .  A
C165        O170   1.372       .  S
C166        C167   1.407       .  A
C166        H171   1.084       .  S
C167        C168   1.411       .  A
C168        O172   1.372       .  S
C169        C174   1.408       .  A
C169        C178   1.400       .  A
O170        H186   0.992       .  S
O172        H183   0.992       .  S
C174        C175   1.398       .  A
C174        O179   1.372       .  S
C175        C176   1.399       .  A
C175        H180   1.083       .  S
C176       C1658   1.471       .  S
C176       C1749   1.406       .  A
C177       C1748   1.408   1_455  A
C177       C1750   1.399   1_455  A
C177        O181   1.371       .  S
C178       C1749   1.398       .  A
C178       H1754   1.084       .  S
O179        H184   0.992       .  S
O181        H185   0.991       .  S
H182       C1750   1.084   1_455  S
C187        C188   1.404       .  A
C187        C192   1.401       .  A
C187        H197   1.084       .  S
C188        C193   1.480       .  S
C188        C189   1.408       .  A
C189        C190   1.397       .  A
C189        O194   1.374       .  S
C190        C191   1.404       .  A
C190        H195   1.084       .  S
C191        C192   1.410       .  A
C192        O196   1.372       .  S
C193        C198   1.410       .  A
C193        C202   1.404       .  A
O194        H210   0.992       .  S
O196        H207   0.992       .  S
C198        C199   1.395       .  A
C198        O203   1.372       .  S
C199        C200   1.398       .  A
C199        H204   1.081   1_545  S
C200       C1657   1.475       .  S
C200        C201   1.406       .  A
C201        C202   1.402       .  A
C201       O1777   1.372       .  S
C202        H206   1.083       .  S
O203        H208   0.992       .  S
O205       C1773   1.372   1_455  S
O205        H209   0.992       .  S
C211        C212   1.403       .  A
C211        C216   1.401       .  A
C211        H221   1.084       .  S
C212        C217   1.479       .  S
C212        C213   1.406       .  A
C213        C214   1.398       .  A
C213        O218   1.372       .  S
C214        C215   1.404       .  A
C214        H219   1.084       .  S
C215        C216   1.412       .  A
C216        O220   1.371       .  S
C217        C222   1.405       .  A
C217        C226   1.403       .  A
O218        H234   0.992       .  S
O220        H231   0.991       .  S
C222        C223   1.396       .  A
C222        O227   1.372       .  S
C223        C224   1.407       .  A
C223        H228   1.084       .  S
C224        C225   1.412       .  A
C225        C226   1.404       .  A
C225       O1801   1.372       .  S
C226        H230   1.084       .  S
O227        H232   0.992       .  S
O229       C1797   1.371       .  S
O229        H233   0.992       .  S
C235        C236   1.407       .  A
C235        C240   1.404       .  A
C235        H245   1.083       .  S
C236        C241   1.486       .  S
C236        C237   1.408       .  A
C237        C238   1.397       .  A
C237        O242   1.372       .  S
C238        C239   1.406       .  A
C238        H243   1.084       .  S
C239        C240   1.409       .  A
C240        O244   1.371       .  S
C241        C246   1.408       .  A
C241        C250   1.406       .  A
O242        H258   0.992       .  S
O244        H255   0.992       .  S
C246        C247   1.402       .  A
C246        O251   1.372       .  S
C247        C248   1.404       .  A
C247        H252   1.082       .  S
C248        C249   1.405       .  A
C249        C250   1.399       .  A
C249        O253   1.371       .  S
C250        H254   1.084       .  S
O251        H256   0.992       .  S
O253        H257   0.991       .  S
C259        C260   1.403       .  A
C259        C264   1.398       .  A
C259        H269   1.084       .  S
C260        C265   1.483       .  S
C260        C261   1.410       .  A
C261        C262   1.402       .  A
C261        O266   1.372       .  S
C262        C263   1.404       .  A
C262        H267   1.083       .  S
C263        C264   1.409       .  A
C264        O268   1.371       .  S
C265        C270   1.409       .  A
C265        C274   1.403       .  A
O266        H282   0.992       .  S
O268        H279   0.992       .  S
C270        C271   1.402       .  A
C270        O275   1.371       .  S
C271        C272   1.406       .  A
C271        H276   1.084       .  S
C272        C273   1.410       .  A
C273        C274   1.399       .  A
C273       O1849   1.372       .  S
C274       H1850   1.084       .  S
O275        H280   0.992       .  S
O277       C1845   1.372       .  S
O277        H281   0.992   1_655  S
H278       C1846   1.084       .  S
C283        C284   1.405       .  A
C283        C288   1.404       .  A
C283        H293   1.083       .  S
C284        C289   1.486       .  S
C284        C285   1.409       .  A
C285       C1858   1.398       .  A
C285       O1862   1.372       .  S
C286       C1857   1.395   1_455  A
C286       C1859   1.397   1_455  A
C286        H291   1.080       .  S
C287       C1654   1.483       .  S
C287        C288   1.408       .  A
C287       C1858   1.398       .  A
C288       O1078   1.372   1_545  S
C289        C294   1.409       .  A
C289        C298   1.405       .  A
O290       C1857   1.372   1_455  S
O290        H306   0.992       .  S
O292       C1074   1.372       .  S
O292        H303   0.992       .  S
C294        C295   1.401       .  A
C294        O299   1.372       .  S
C295        C296   1.405       .  A
C295        H300   1.083       .  S
C296        C297   1.406       .  A
C297        C298   1.400       .  A
C297        O301   1.371       .  S
C298        H302   1.084       .  S
O299        H304   0.992       .  S
O301        H305   0.991       .  S
C307        C308   1.408       .  A
C307        C312   1.398       .  A
C307        H317   1.083       .  S
C308        C313   1.487       .  S
C308        C309   1.411       .  A
C309        C310   1.401       .  A
C309        O314   1.373       .  S
C310        C311   1.400       .  A
C310        H315   1.084       .  S
C311        C312   1.401       .  A
C312        O316   1.372       .  S
C313        C318   1.408       .  A
C313        C322   1.403       .  A
O314        H330   0.992       .  S
O316        H327   0.992       .  S
C318        C319   1.398       .  A
C318        O323   1.371       .  S
C319        C320   1.408       .  A
C319        H324   1.082       .  S
C320        C321   1.412       .  A
C321        C322   1.401       .  A
C321        O325   1.371       .  S
C322        H326   1.084       .  S
O323        H328   0.992       .  S
O325        H329   0.992       .  S
C331        C332   1.408       .  A
C331        C336   1.403       .  A
C331        H341   1.083       .  S
C332        C337   1.497       .  S
C332        C333   1.414       .  A
C333       C1906   1.402       .  A
C333       O1910   1.371       .  S
C334       C1905   1.402   1_455  A
C334       C1907   1.399   1_455  A
C334        H339   1.084       .  S
C335       C1655   1.485       .  S
C335        C336   1.405       .  A
C335       C1906   1.400       .  A
C336        O340   1.370       .  S
C337        C342   1.414       .  A
C337        C346   1.407       .  A
O338       C1905   1.371   1_455  S
O338        H354   0.992       .  S
O340        H351   0.992       .  S
C342        C343   1.404       .  A
C342        O347   1.372       .  S
C343        C344   1.404       .  A
C343        H348   1.084       .  S
C344        C345   1.410       .  A
C345        C346   1.401       .  A
C345        O349   1.371       .  S
C346        H350   1.083       .  S
O347        H352   0.992       .  S
O349        H353   0.991       .  S
C355        C356   1.400       .  A
C355        C360   1.397       .  A
C355        H365   1.084       .  S
C356        C361   1.476       .  S
C356        C357   1.407       .  A
C357        C358   1.403       .  A
C357        O362   1.372       .  S
C358        C359   1.405       .  A
C358        H363   1.084       .  S
C359        C360   1.410       .  A
C360        O364   1.373       .  S
C361        C366   1.409       .  A
C361        C370   1.399       .  A
O362        H378   0.992       .  S
O364        H375   0.992       .  S
C366        C367   1.400       .  A
C366        O371   1.372       .  S
C367        C368   1.403       .  A
C367        H372   1.083       .  S
C368        C369   1.409       .  A
C369        C370   1.398       .  A
C369        O373   1.371       .  S
C370        H374   1.084       .  S
O371        H376   0.992       .  S
O373        H377   0.992       .  S
C379        C380   1.405       .  A
C379        C384   1.406       .  A
C379        H389   1.084       .  S
C380        C385   1.481       .  S
C380        C381   1.405       .  A
C381        C382   1.396       .  A
C381        O386   1.373       .  S
C382        C383   1.408       .  A
C382        H387   1.084       .  S
C383        C384   1.413       .  A
C384        O388   1.371       .  S
C385        C390   1.409       .  A
C385        C394   1.403       .  A
O386        H402   0.992       .  S
O388        H399   0.992       .  S
C390        C391   1.396       .  A
C390        O395   1.371       .  S
C391        C392   1.399       .  A
C391        H396   1.084       .  S
C392        C393   1.409       .  A
C393        C394   1.404       .  A
C393        O397   1.372       .  S
C394        H398   1.083       .  S
O395        H400   0.992       .  S
O397        H401   0.992       .  S
C403        C404   1.406       .  A
C403        C408   1.397       .  A
C403        H413   1.084       .  S
C404        C409   1.487       .  S
C404        C405   1.411       .  A
C405        C406   1.402       .  A
C405        O410   1.373       .  S
C406        C407   1.402       .  A
C406        H411   1.084       .  S
C407        C408   1.404       .  A
C408        O412   1.372       .  S
C409        C414   1.412       .  A
C409        C418   1.406       .  A
O410        H426   0.992       .  S
O412        H423   0.991       .  S
C414        C415   1.402       .  A
C414        O419   1.371       .  S
C415        C416   1.403       .  A
C415       H1992   1.084       .  S
C416        C417   1.407       .  A
C417        C418   1.398       .  A
C417        O421   1.372       .  S
C418        H422   1.084       .  S
O419       H1996   0.992       .  S
H420       C1987   1.084       .  S
O421        H425   0.992   1_556  S
H424       O1991   0.992       .  S
C427        C428   1.403       .  A
C427        C432   1.397       .  A
C427        H437   1.084       .  S
C428        C433   1.478       .  S
C428        C429   1.410       .  A
C429        C430   1.399       .  A
C429        O434   1.372       .  S
C430        C431   1.400       .  A
C430        H435   1.084       .  S
C431        C432   1.407       .  A
C432        O436   1.371       .  S
C433        C438   1.407       .  A
C433        C442   1.404       .  A
O434        H450   0.992       .  S
O436        H447   0.991       .  S
C438       C2011   1.396       .  A
C438       O2015   1.372       .  S
C439       C2010   1.402       .  A
C439       C2012   1.406       .  A
C439        H444   1.084       .  S
C440       C1626   1.481       .  S
C440        C441   1.407       .  A
C440       C2011   1.403       .  A
C441        C442   1.401       .  A
C441       O1231   1.371       .  S
C442        H446   1.084       .  S
O443       C2010   1.371       .  S
O443        H448   0.992       .  S
O445       C1227   1.371   1_545  S
O445        H449   0.991       .  S
C451        C452   1.401       .  A
C451        C456   1.398       .  A
C451        H461   1.084       .  S
C452        C457   1.479       .  S
C452        C453   1.409       .  A
C453        C454   1.402       .  A
C453        O458   1.371       .  S
C454        C455   1.402       .  A
C454       H2031   1.084   1_455  S
C455       C1627   1.482       .  S
C455        C456   1.409       .  A
C456        O460   1.372       .  S
C457        C462   1.405       .  A
C457        C466   1.404       .  A
O458        H474   0.992       .  S
H459       C2026   1.083       .  S
O460        H471   0.991       .  S
C462        C463   1.397       .  A
C462        O467   1.372       .  S
C463        C464   1.405       .  A
C463        H468   1.083       .  S
C464        C465   1.407       .  A
C465        C466   1.403       .  A
C465        O469   1.371       .  S
C466        H470   1.084       .  S
O467        H472   0.992       .  S
O469        H473   0.992       .  S
C475        C476   1.405       .  A
C475        C480   1.403       .  A
C475        H485   1.083       .  S
C476        C481   1.482       .  S
C476        C477   1.408       .  A
C477        C478   1.398       .  A
C477        O482   1.371       .  S
C478        C479   1.401       .  A
C478        H483   1.084       .  S
C479        C480   1.409       .  A
C480        O484   1.372       .  S
C481        C486   1.407       .  A
C481        C490   1.404       .  A
O482        H498   0.992       .  S
O484        H495   0.992       .  S
C486        C487   1.401       .  A
C486        O491   1.371       .  S
C487        C488   1.406       .  A
C487        H492   1.083       .  S
C488        C489   1.408       .  A
C489        C490   1.402       .  A
C489        O493   1.372       .  S
C490        H494   1.084       .  S
O491        H496   0.992       .  S
O493        H497   0.992       .  S
C499        C500   1.404       .  A
C499        C504   1.400       .  A
C499        H509   1.083       .  S
C500        C505   1.495       .  S
C500        C501   1.414       .  A
C501        C502   1.404       .  A
C501        O506   1.371       .  S
C502        C503   1.405       .  A
C502        H507   1.083       .  S
C503        C504   1.414       .  A
C504        O508   1.372       .  S
C505        C510   1.413       .  A
C505        C514   1.407       .  A
O506        H522   0.992       .  S
O508        H519   0.992       .  S
C510        C511   1.401       .  A
C510        O515   1.372       .  S
C511        C512   1.403       .  A
C511       H1302   1.084       .  S
C512        C513   1.409       .  A
C513        C514   1.402       .  A
C513        O517   1.371       .  S
C514        H518   1.083       .  S
O515       H1306   0.992       .  S
H516       C1297   1.084       .  S
O517        H521   0.991       .  S
H520       O1301   0.992       .  S
C523        C524   1.399       .  A
C523        C528   1.398       .  A
C523        H533   1.084       .  S
C524        C529   1.477       .  S
C524        C525   1.406       .  A
C525        C526   1.404       .  A
C525        O530   1.371       .  S
C526        C527   1.406       .  A
C526        H531   1.083       .  S
C527        C528   1.415       .  A
C528        O532   1.372       .  S
C529        C534   1.405       .  A
C529        C538   1.402       .  A
O530        H546   0.992       .  S
O532        H543   0.992       .  S
C534       C2107   1.401       .  A
C534       O2111   1.371       .  S
C535       C2106   1.399       .  A
C535       C2108   1.403       .  A
C535        H540   1.084       .  S
C536       C1624   1.487       .  S
C536        C537   1.409       .  A
C536       C2107   1.406       .  A
C537        C538   1.401       .  A
C537        O541   1.372       .  S
C538        H542   1.084       .  S
O539       C2106   1.371       .  S
O539        H544   0.992       .  S
O541        H545   0.992       .  S
C547        C548   1.399       .  A
C547        C552   1.395       .  A
C547        H557   1.084       .  S
C548        C553   1.475       .  S
C548        C549   1.405       .  A
C549        C550   1.404       .  A
C549        O554   1.371       .  S
C550        C551   1.408       .  A
C550        H555   1.083       .  S
C551        C552   1.415       .  A
C552        O556   1.372       .  S
C553        C558   1.408       .  A
C553        C562   1.399       .  A
O554        H570   0.992       .  S
O556        H567   0.992       .  S
C558        C559   1.403       .  A
C558       O1349   1.371       .  S
C559        C560   1.405       .  A
C559       H1350   1.083       .  S
C560       C1623   1.485       .  S
C560        C561   1.408   1_455  A
C561        C562   1.397   1_655  A
C561        O565   1.371       .  S
C562        H566   1.084   1_455  S
O563       C1344   1.372       .  S
O563        H568   0.992       .  S
H564       C1345   1.084       .  S
O565       H2141   0.992       .  S
H569       O2137   0.992       .  S
C571        C572   1.405       .  A
C571        C576   1.400       .  A
C571        H581   1.083       .  S
C572        C577   1.479       .  S
C572        C573   1.410       .  A
C573        C574   1.396       .  A
C573        O578   1.373       .  S
C574        C575   1.397       .  A
C574        H579   1.081       .  S
C575        C576   1.405       .  A
C576        O580   1.371       .  S
C577        C582   1.408       .  A
C577        C586   1.403       .  A
O578        H594   0.992       .  S
O580        H591   0.992       .  S
C582        C583   1.401       .  A
C582        O587   1.372       .  S
C583        C584   1.404       .  A
C583        H588   1.084       .  S
C584        C585   1.409       .  A
C585        C586   1.395       .  A
C585        O589   1.373       .  S
C586        H590   1.084       .  S
O587        H592   0.992       .  S
O589        H593   0.992       .  S
C595        C596   1.400       .  A
C595        C600   1.399       .  A
C595        H605   1.084       .  S
C596        C601   1.480   1_455  S
C596        C597   1.408       .  A
C597        C598   1.402       .  A
C597       O2174   1.372       .  S
C598        C599   1.404       .  A
C598        H603   1.083       .  S
C599        C600   1.409       .  A
C600        O604   1.371       .  S
C601       C2178   1.405       .  A
C601       C2182   1.403       .  A
O602       C2169   1.372       .  S
O602        H618   0.992       .  S
O604        H615   0.992       .  S
C606        C607   1.396       .  A
C606       C2173   1.404       .  A
C606       O2183   1.372       .  S
C607        C608   1.408       .  A
C607        H612   1.083       .  S
C608        C609   1.415       .  A
C609        C610   1.404       .  A
C609        O613   1.372       .  S
C610       C2173   1.403       .  A
C610        H614   1.084       .  S
O611       C2178   1.372   1_455  S
O611        H616   0.992       .  S
O613        H617   0.992       .  S
C619        C624   1.403       .  A
C619       C1406   1.403       .  A
C619        H629   1.084       .  S
C620        C625   1.477       .  S
C620       C1405   1.401       .  A
C620       C1407   1.404       .  A
C621        C622   1.399   1_565  A
C621       C1406   1.406   1_565  A
C621       O1412   1.373       .  S
C622        C623   1.408       .  A
C622        H627   1.083       .  S
C623        C624   1.414       .  A
C624        O628   1.371       .  S
C625        C630   1.404       .  A
C625        C634   1.402       .  A
O626       C1407   1.372       .  S
O626        H642   0.992       .  S
O628        H639   0.992       .  S
C630        C631   1.397       .  A
C630       O1421   1.372       .  S
C631        C632   1.403       .  A
C631        H636   1.080       .  S
C632        C633   1.411       .  A
C633        C634   1.406       .  A
C633        O637   1.372       .  S
C634        H638   1.083       .  S
O635       C1416   1.373       .  S
O635        H640   0.992       .  S
O637        H641   0.992       .  S
C643        C644   1.403       .  A
C643        C648   1.399       .  A
C643        H653   1.084       .  S
C644        C649   1.479       .  S
C644        C645   1.408       .  A
C645        C646   1.399       .  A
C645        O650   1.373       .  S
C646        C647   1.403       .  A
C646        H651   1.083       .  S
C647        C648   1.407       .  A
C648        O652   1.372       .  S
C649        C654   1.405       .  A
C649        C658   1.404       .  A
O650        H666   0.992       .  S
O652        H663   0.992       .  S
C654        C655   1.394       .  A
C654        O659   1.372       .  S
C655        C656   1.409       .  A
C655        H660   1.083       .  S
C656        C657   1.413       .  A
C657        C658   1.403       .  A
C657        O661   1.371       .  S
C658        H662   1.084       .  S
O659        H664   0.992       .  S
O661        H665   0.992       .  S
C667        C668   1.406       .  A
C667        C672   1.402       .  A
C667        H677   1.083       .  S
C668       C2245   1.485       .  S
C668        C669   1.411       .  A
C669        C670   1.396       .  A
C669        O674   1.372       .  S
C670        C671   1.399       .  A
C670        H675   1.082       .  S
C671        C672   1.406       .  A
C672        O676   1.372       .  S
C673       C2240   1.491       .  S
C673        C678   1.411   1_655  A
C673       C2254   1.406       .  A
O674        H690   0.992       .  S
O676        H687   0.991       .  S
C678        C679   1.402       .  A
C678        O683   1.372       .  S
C679        C680   1.404       .  A
C679        H684   1.084       .  S
C680        C681   1.410       .  A
C681       C2254   1.399   1_455  A
C681        O685   1.372       .  S
C682       C2245   1.405       .  A
C682       C2253   1.399       .  A
C682        H686   1.084       .  S
O683        H688   0.992       .  S
O685        H689   0.992       .  S
C691        C692   1.402       .  A
C691        C696   1.401       .  A
C691        H701   1.084       .  S
C692        C697   1.476       .  S
C692        C693   1.408       .  A
C693        C694   1.399       .  A
C693        O698   1.371       .  S
C694        C695   1.400       .  A
C694        H699   1.084       .  S
C695        C696   1.406       .  A
C696        O700   1.373       .  S
C697        C706   1.400       .  A
C697       C1488   1.406   1_545  A
O698        H714   0.992       .  S
O700        H711   0.992       .  S
C702        C703   1.405       .  A
C702       C1483   1.407       .  A
C702        O707   1.372       .  S
C703        C704   1.408       .  A
C703        H708   1.083       .  S
C704        C705   1.415       .  A
C705       C1492   1.396       .  A
C705        O709   1.372       .  S
C706       C1491   1.397   1_545  A
C706        H710   1.084       .  S
O707        H712   0.992       .  S
O709        H713   0.992       .  S
C715        C716   1.404       .  A
C715        C720   1.404       .  A
C715        H725   1.084       .  S
C716        C721   1.481       .  S
C716        C717   1.406       .  A
C717        C718   1.400       .  A
C717        O722   1.372       .  S
C718        C719   1.405       .  A
C718        H723   1.083       .  S
C719        C720   1.408       .  A
C720        O724   1.371       .  S
C721        C726   1.407       .  A
C721        C730   1.404       .  A
O722        H738   0.992       .  S
O724        H735   0.991       .  S
C726        C727   1.400       .  A
C726        O731   1.371       .  S
C727        C728   1.405       .  A
C727        H732   1.084       .  S
C728        C729   1.407       .  A
C729        C730   1.403       .  A
C729        O733   1.370       .  S
C730        H734   1.084       .  S
O731        H736   0.992       .  S
O733        H737   0.992       .  S
C739        C740   1.405       .  A
C739        C744   1.397       .  A
C739       H1535   1.082       .  S
C740       C1531   1.497       .  S
C740        C741   1.415       .  A
C741        C742   1.403       .  A
C741        O746   1.371       .  S
C742        C743   1.402       .  A
C742        H747   1.080       .  S
C743        C744   1.412       .  A
C744        O748   1.371       .  S
C745       C1526   1.493   1_545  S
C745        C750   1.414       .  A
C745        C754   1.408       .  A
O746        H762   0.992       .  S
O748        H759   0.992       .  S
H749       C1525   1.083   1_545  S
C750        C751   1.399       .  A
C750        O755   1.371       .  S
C751        C752   1.398       .  A
C751        H756   1.083       .  S
C752        C753   1.404       .  A
C753        C754   1.401       .  A
C753        O757   1.371       .  S
C754        H758   1.083       .  S
O755        H760   0.992       .  S
O757        H761   0.991       .  S
C763        C764   1.402       .  A
C763        C768   1.402       .  A
C763        H773   1.084       .  S
C764       C2341   1.482   1_455  S
C764        C765   1.408       .  A
C765        C766   1.403       .  A
C765        O770   1.372       .  S
C766        C767   1.402       .  A
C766        H771   1.080       .  S
C767        C768   1.411       .  A
C768        O772   1.372       .  S
C769       C2336   1.480       .  S
C769        C774   1.409       .  A
C769        C778   1.402       .  A
O770        H786   0.992       .  S
O772        H783   0.991       .  S
C774        C775   1.400       .  A
C774        O779   1.371       .  S
C775        C776   1.401       .  A
C775        H780   1.084       .  S
C776        C777   1.409       .  A
C777        C778   1.402       .  A
C777        O781   1.371       .  S
C778       H2354   1.084       .  S
O779        H784   0.992       .  S
O781        H785   0.991       .  S
H782       C2350   1.084       .  S
C787        H788   1.111       .  S
C787        C793   1.540       .  S
C787        C792   1.541       .  S
C787        C791   1.539       .  S
C789        H790   1.111       .  S
C789        C795   1.532       .  S
C789        C794   1.532       .  S
C789        C796   1.530       .  S
C791        C794   1.373       .  D
C791       C1562   1.483       .  S
C792        C795   1.373       .  D
C792       C1514   1.482       .  S
C793        C796   1.369       .  D
C793       C1538   1.478       .  S
C794       C1457   1.475       .  S
C795       C1433   1.483       .  S
C796       C1481   1.477       .  S
C797        H798   1.111       .  S
C797        C803   1.526       .  S
C797        C802   1.533       .  S
C797        C801   1.531       .  S
C799        H800   1.110       .  S
C799        C805   1.545       .  S
C799        C804   1.541       .  S
C799        C806   1.547       .  S
C801        C804   1.373       .  D
C801       C1361   1.476       .  S
C802        C805   1.379       .  D
C802       C1418   1.491       .  S
C803        C806   1.374       .  D
C803       C1385   1.486       .  S
C804       C1505   1.491       .  S
C805       C1529   1.492       .  S
C806       C1553   1.483       .  S
O807       Ni813   1.927       .  S
O807        C828   1.271       .  A
O808       Ni831   1.913       .  S
O808        C817   1.268       .  A
O809       Ni813   1.902       .  S
O809       Ni831   1.909       .  S
O809       Ni825   1.908       .  S
O809        H832   0.966       .  S
C810        O827   1.279       .  A
C810        O819   1.276       .  A
C810       C1337   1.476       .  S
O811       Ni830   1.918       .  S
O811        C817   1.269       .  A
O812       Ni830   1.912       .  S
O812        C814   1.269       .  A
Ni813       O816   1.928       .  S
Ni813       O818   1.902       .  S
C814        O824   1.270       .  A
C814       C1289   1.481       .  S
O815       Ni831   1.913       .  S
O815        C821   1.276       .  A
O816        C821   1.278       .  A
C817       C1490   1.483       .  S
O818        C820   1.266       .  A
O819       Ni830   1.911       .  S
C820        O826   1.271       .  A
C820       C1466   1.479       .  S
C821       C1442   1.487       .  S
H822        O823   0.966       .  S
O823       Ni831   1.915       .  S
O823       Ni825   1.901       .  S
O823       Ni830   1.902       .  S
O824       Ni825   1.924       .  S
Ni825       O829   1.910       .  S
Ni825       O827   1.926       .  S
O826       Ni831   1.932       .  S
C828        O829   1.269       .  A
C828       C1313   1.480       .  S
C833        H834   1.111       .  S
C833        C838   1.531       .  S
C835        H836   1.111       .  S
C835        C841   1.540       .  S
C837        C840   1.373       .  D
C837       C2918   1.486       .  S
C838        C841   1.372       .  D
C838       C2894   1.481       .  S
C839        C842   1.375       .  D
C839       C1298   1.484       .  S
C840       C2798   1.480       .  S
C841       C2813   1.485       .  S
C842       C1265   1.483       .  S
C843        H844   1.110       .  S
C843        C849   1.539       .  S
C843        C848   1.538       .  S
C843        C847   1.545       .  S
C845        H846   1.110       .  S
C845        C851   1.536       .  S
C845        C850   1.530       .  S
C845        C852   1.530       .  S
C847        C850   1.377       .  D
C847       C1250   1.487       .  S
C848        C851   1.378       .  D
C848       C1274   1.488       .  S
C849        C852   1.372       .  D
C849       C1217   1.487       .  S
C850       C1178   1.488       .  S
C851       C1154   1.490       .  S
C852       C1193   1.475       .  S
C853        H854   1.111       .  S
C853        C859   1.543       .  S
C853        C858   1.535       .  S
C853        C857   1.540       .  S
C855        H856   1.111       .  S
C855        C861   1.533       .  S
C855        C860   1.532       .  S
C855        C862   1.528       .  S
C857        C860   1.377       .  D
C857       C1082   1.483       .  S
C858        C861   1.372       .  D
C858       C1097   1.477       .  S
C859        C862   1.373       .  D
C859       C1130   1.485       .  S
C860       C1049   1.487       .  S
C861       C1034   1.484       .  S
C862       C1001   1.480       .  S
C863        H864   1.109       .  S
C863        C869   1.535       .  S
C865        H866   1.111       .  S
C865        C872   1.527       .  S
C867        C870   1.384       .  D
C867       C1106   1.500       .  S
C868        C871   1.368   1_455  D
C868       C2645   1.485   1_455  S
C869        C872   1.366       .  D
C869       C2693   1.479   1_455  S
C870        C929   1.490       .  S
C871       C2558   1.476       .  S
C872       C2534   1.469   1_455  S
O873       Ni879   1.932       .  S
O873        C894   1.273       .  A
O874       Ni897   1.912       .  S
O874        C883   1.269       .  A
O875       Ni879   1.903       .  S
O875       Ni897   1.907       .  S
O875       Ni891   1.911       .  S
O875        H898   0.966       .  S
C876        O893   1.276       .  A
C876        O885   1.277       .  A
C876       C1370   1.474       .  S
O877       Ni896   1.927       .  S
O877        C883   1.270       .  A
O878       Ni896   1.908       .  S
O878        C880   1.269       .  A
Ni879       O882   1.918       .  S
Ni879       O884   1.909       .  S
C880        O890   1.269       .  A
C880       C1394   1.487       .  S
O881       Ni897   1.928       .  S
O881        C887   1.279       .  A
O882        C887   1.277       .  A
C883        C953   1.486       .  S
O884        C886   1.270       .  A
O885       Ni896   1.919       .  S
C886        O892   1.270       .  A
C886        C938   1.479       .  S
C887        C977   1.486       .  S
H888        O889   0.966       .  S
O889       Ni897   1.914       .  S
O889       Ni891   1.905       .  S
O889       Ni896   1.903       .  S
O890       Ni891   1.919       .  S
Ni891       O895   1.909       .  S
Ni891       O893   1.920       .  S
O892       Ni897   1.924       .  S
C894        O895   1.268       .  A
C894       C1409   1.487       .  S
O899       Ni905   1.919       .  S
O899        C920   1.271   1_554  A
O900      Ni2495   1.908       .  S
O900        C909   1.267       .  A
O901       Ni905   1.916       .  S
O901      Ni2489   1.930   1_455  S
O901        H924   0.968       .  S
C902        O919   1.270       .  A
C902        O911   1.269       .  A
C902       C1145   1.487       .  S
O903       Ni922   1.915       .  S
O903        C909   1.269       .  A
O904       Ni922   1.903       .  S
O904       C2478   1.270   1_554  A
Ni905       O908   1.932       .  S
Ni905       O910   1.896       .  S
C906       O2476   1.270   1_456  A
C906        O916   1.278       .  A
C906       C1202   1.477       .  S
O907        C913   1.270       .  A
O908        C913   1.272       .  A
C909       C1010   1.488       .  S
O910       C2484   1.267   1_455  A
O911       Ni922   1.921   1_556  S
C912       O2482   1.268       .  A
C912        O918   1.277       .  A
C912       C1058   1.481       .  S
C913       C1025   1.483       .  S
H914        O915   0.964       .  S
O915      Ni2495   1.916       .  S
O915       Ni922   1.915       .  S
O916      Ni1703   1.947   1_466  S
Ni917      O1702   1.926   1_554  S
Ni917      O2493   1.910   1_554  S
Ni917      O2473   1.929       .  S
O918      Ni1709   1.948       .  S
C920        O921   1.271       .  A
C920       C1169   1.486       .  S
O921      Ni2489   1.915   1_456  S
Ni923      O2472   1.921   1_455  S
Ni923      O1704   1.950   1_465  S
Ni923      O2487   1.920   1_455  S
C925        C926   1.406       .  A
C925        C930   1.403       .  A
C925        H935   1.083       .  S
C926        C931   1.488       .  S
C926        C927   1.410       .  A
C927        C928   1.399       .  A
C927        O932   1.374       .  S
C928        C929   1.402       .  A
C928        H933   1.083       .  S
C929        C930   1.410       .  A
C930        O934   1.371       .  S
C931        C936   1.410       .  A
C931        C940   1.406       .  A
O932        H948   0.992       .  S
O934        H945   0.991       .  S
C936        C937   1.397       .  A
C936        O941   1.371       .  S
C937        C938   1.403       .  A
C937        H942   1.084       .  S
C938        C939   1.410       .  A
C939        C940   1.404       .  A
C939        O943   1.372       .  S
C940        H944   1.083       .  S
O941        H946   0.992       .  S
O943        H947   0.992       .  S
C949        C950   1.399       .  A
C949        C954   1.400       .  A
C949        H959   1.084       .  S
C950        C955   1.475       .  S
C950        C951   1.404       .  A
C951        C952   1.402       .  A
C951        O956   1.371       .  S
C952        C953   1.408       .  A
C952        H957   1.083       .  S
C953        C954   1.415       .  A
C954        O958   1.372       .  S
C955        C960   1.406       .  A
C955        C964   1.401       .  A
O956        H972   0.992       .  S
O958        H969   0.992       .  S
C960        C961   1.400       .  A
C960        O965   1.372       .  S
C961        C962   1.401       .  A
C961        H966   1.082       .  S
C962       C2444   1.479       .  S
C962       C2535   1.408       .  A
C963       C2534   1.407   1_455  A
C963       C2536   1.400       .  A
C963        O967   1.374       .  S
C964       C2535   1.403       .  A
C964       H2540   1.084       .  S
O965        H970   0.992       .  S
O967        H971   0.992       .  S
H968       C2536   1.084       .  S
C973        C974   1.406       .  A
C973        C978   1.406       .  A
C973        H983   1.083       .  S
C974        C979   1.486       .  S
C974        C975   1.407       .  A
C975        C976   1.398       .  A
C975        O980   1.374       .  S
C976        C977   1.406       .  A
C976        H981   1.084       .  S
C977        C978   1.412       .  A
C978        O982   1.372       .  S
C979        C984   1.412       .  A
C979        C988   1.404       .  A
O980        H996   0.992       .  S
O982        H993   0.992       .  S
C984        C985   1.398       .  A
C984        O989   1.371       .  S
C985        C986   1.398       .  A
C985        H990   1.083       .  S
C986       C2443   1.478       .  S
C986        C987   1.407       .  A
C987        C988   1.403       .  A
C987       O2563   1.371       .  S
C988        H992   1.083       .  S
O989        H994   0.992       .  S
O991       C2559   1.371       .  S
O991        H995   0.991       .  S
C997        C998   1.405       .  A
C997       C1002   1.404       .  A
C997       H1007   1.083       .  S
C998       C1003   1.481       .  S
C998        C999   1.407       .  A
C999       C1000   1.397       .  A
C999       O1004   1.373       .  S
C1000      C1001   1.401       .  A
C1000      H1005   1.084       .  S
C1001      C1002   1.407       .  A
C1002      O1006   1.372       .  S
C1003      C1008   1.406       .  A
C1003      C1012   1.404       .  A
O1004      H1020   0.992       .  S
O1006      H1017   0.991       .  S
C1008      C1009   1.393       .  A
C1008      O1013   1.372       .  S
C1009      C1010   1.408       .  A
C1009      H1014   1.083       .  S
C1010      C1011   1.414       .  A
C1011      C1012   1.405       .  A
C1011      O2587   1.371       .  S
C1012      H1016   1.083       .  S
O1013      H1018   0.992       .  S
O1015      C2583   1.371   1_455  S
O1015      H1019   0.992       .  S
C1021      C1022   1.407       .  A
C1021      C1026   1.404       .  A
C1021      H1031   1.083       .  S
C1022      C1027   1.487       .  S
C1022      C1023   1.409       .  A
C1023      C1024   1.397       .  A
C1023      O1028   1.372       .  S
C1024      C1025   1.406       .  A
C1024      H1029   1.084       .  S
C1025      C1026   1.410       .  A
C1026      O1030   1.371       .  S
C1027      C1032   1.409       .  A
C1027      C1036   1.405       .  A
O1028      H1044   0.992       .  S
O1030      H1041   0.992       .  S
C1032      C1033   1.403       .  A
C1032      O1037   1.372       .  S
C1033      C1034   1.404       .  A
C1033      H1038   1.081       .  S
C1034      C1035   1.405       .  A
C1035      C1036   1.397       .  A
C1035      O1039   1.371       .  S
C1036      H1040   1.083       .  S
O1037      H1042   0.992       .  S
O1039      H1043   0.991       .  S
C1045      C1046   1.400       .  A
C1045      C1050   1.398       .  A
C1045      H1055   1.084       .  S
C1046      C1051   1.476       .  S
C1046      C1047   1.407       .  A
C1047      C1048   1.400       .  A
C1047      O1052   1.372       .  S
C1048      C1049   1.405       .  A
C1048      H1053   1.083       .  S
C1049      C1050   1.411       .  A
C1050      O1054   1.371       .  S
C1051      C1056   1.406       .  A
C1051      C1060   1.400       .  A
O1052      H1068   0.992       .  S
O1054      H1065   0.992       .  S
C1056      C1057   1.400       .  A
C1056      O1061   1.371       .  S
C1057      C1058   1.407       .  A
C1057      H1062   1.083       .  S
C1058      C1059   1.413       .  A
C1059      C1060   1.398       .  A
C1059      O2635   1.372       .  S
C1060      H2636   1.084       .  S
O1061      H1066   0.992       .  S
O1063      C2631   1.372       .  S
O1063      H1067   0.992       .  S
H1064      C2632   1.084       .  S
C1069      C1070   1.404       .  A
C1069      C1074   1.401       .  A
C1069      H1079   1.083       .  S
C1070      C1075   1.483       .  S
C1070      C1071   1.409       .  A
C1071      C2644   1.398       .  A
C1071      O2648   1.372       .  S
C1072      C2643   1.401   1_455  A
C1072      C2645   1.399   1_455  A
C1072      H1077   1.080       .  S
C1073      C2440   1.478       .  S
C1073      C2644   1.398       .  A
C1073      C1074   1.406       .  A
C1075      C1080   1.408       .  A
C1075      C1084   1.405       .  A
O1076      C2643   1.371   1_455  S
O1076      H1092   0.992       .  S
O1078      H1089   0.992       .  S
C1080      C1081   1.399       .  A
C1080      O1085   1.372       .  S
C1081      C1082   1.404       .  A
C1081      H1086   1.084       .  S
C1082      C1083   1.405       .  A
C1083      C1084   1.399       .  A
C1083      O1087   1.371       .  S
C1084      H1088   1.083       .  S
O1085      H1090   0.992       .  S
O1087      H1091   0.992       .  S
C1093      C1094   1.408       .  A
C1093      C1098   1.398       .  A
C1093      H1103   1.083       .  S
C1094      C1099   1.491       .  S
C1094      C1095   1.412       .  A
C1095      C1096   1.404       .  A
C1095      O1100   1.372       .  S
C1096      C1097   1.402       .  A
C1096      H1101   1.084       .  S
C1097      C1098   1.401       .  A
C1098      O1102   1.372       .  S
C1099      C1104   1.410       .  A
C1099      C1108   1.404       .  A
O1100      H1116   0.992       .  S
O1102      H1113   0.992       .  S
C1104      C1105   1.403       .  A
C1104      O1109   1.371       .  S
C1105      C1106   1.409       .  A
C1105      H1110   1.082       .  S
C1106      C1107   1.409       .  A
C1107      C1108   1.401       .  A
C1107      O1111   1.371       .  S
C1108      H1112   1.084       .  S
O1109      H1114   0.992       .  S
O1111      H1115   0.992       .  S
C1117      C1118   1.407       .  A
C1117      C1122   1.400       .  A
C1117      H1127   1.083       .  S
C1118      C1123   1.490       .  S
C1118      C1119   1.413       .  A
C1119      C2692   1.399       .  A
C1119      O2696   1.371       .  S
C1120      C2691   1.399   1_455  A
C1120      C2693   1.400   1_455  A
C1120      H1125   1.082       .  S
C1121      C2441   1.476       .  S
C1121      C2692   1.399       .  A
C1121      C1122   1.403       .  A
C1122      O1126   1.370       .  S
C1123      C1128   1.413       .  A
C1123      C1132   1.405       .  A
O1124      C2691   1.371   1_455  S
O1124      H1140   0.992       .  S
O1126      H1137   0.992       .  S
C1128      C1129   1.401       .  A
C1128      O1133   1.372       .  S
C1129      C1130   1.401       .  A
C1129      H1134   1.083       .  S
C1130      C1131   1.409       .  A
C1131      C1132   1.397       .  A
C1131      O1135   1.371       .  S
C1132      H1136   1.083       .  S
O1133      H1138   0.992       .  S
O1135      H1139   0.991       .  S
C1141      C1142   1.400       .  A
C1141      C1146   1.392       .  A
C1141      H1151   1.083       .  S
C1142      C1147   1.486       .  S
C1142      C1143   1.411       .  A
C1143      C1144   1.404       .  A
C1143      O1148   1.371       .  S
C1144      C1145   1.407       .  A
C1144      H1149   1.083   1_565  S
C1145      C1146   1.416       .  A
C1146      O1150   1.372       .  S
C1147      C1152   1.410       .  A
C1147      C1156   1.405       .  A
O1148      H1164   0.992   1_565  S
O1150      H1161   0.992       .  S
C1152      C1153   1.397       .  A
C1152      O1157   1.373       .  S
C1153      C1154   1.404       .  A
C1153      H1158   1.082       .  S
C1154      C1155   1.410       .  A
C1155      C1156   1.402       .  A
C1155      O1159   1.372       .  S
C1156      H1160   1.083       .  S
O1157      H1162   0.992       .  S
O1159      H1163   0.992       .  S
C1165      C1166   1.404       .  A
C1165      C1170   1.405       .  A
C1165      H1175   1.083       .  S
C1166      C1171   1.482       .  S
C1166      C1167   1.405       .  A
C1167      C1168   1.398       .  A
C1167      O1172   1.373       .  S
C1168      C1169   1.408       .  A
C1168      H1173   1.084       .  S
C1169      C1170   1.411       .  A
C1170      O1174   1.371       .  S
C1171      C1176   1.408       .  A
C1171      C1180   1.402       .  A
O1172      H1188   0.992       .  S
O1174      H1185   0.992       .  S
C1176      C1177   1.399       .  A
C1176      O1181   1.372       .  S
C1177      C1178   1.403       .  A
C1177      H1182   1.084       .  S
C1178      C1179   1.410       .  A
C1179      C1180   1.405       .  A
C1179      O1183   1.372       .  S
C1180      H1184   1.083       .  S
O1181      H1186   0.992       .  S
O1183      H1187   0.992       .  S
C1189      C1190   1.405       .  A
C1189      C1194   1.396       .  A
C1189      H1199   1.084       .  S
C1190      C1195   1.481       .  S
C1190      C1191   1.409       .  A
C1191      C1192   1.402       .  A
C1191      O1196   1.372       .  S
C1192      C1193   1.401       .  A
C1192      H1197   1.084       .  S
C1193      C1194   1.404       .  A
C1194      O1198   1.372       .  S
C1195      C1200   1.409       .  A
C1195      C1204   1.403       .  A
O1196      H1212   0.992       .  S
O1198      H1209   0.991       .  S
C1200      C1201   1.400       .  A
C1200      O1205   1.372       .  S
C1201      C1202   1.406       .  A
C1201      H2778   1.084       .  S
C1202      C1203   1.409       .  A
C1203      C1204   1.396       .  A
C1203      O1207   1.372       .  S
C1204      H1208   1.084       .  S
O1205      H2782   0.992       .  S
H1206      C2773   1.084       .  S
O1207      H1211   0.992   1_556  S
H1210      O2777   0.992       .  S
C1213      C1214   1.403       .  A
C1213      C1218   1.400       .  A
C1213      H1223   1.084       .  S
C1214      C1219   1.485       .  S
C1214      C1215   1.410       .  A
C1215      C1216   1.402       .  A
C1215      O1220   1.372       .  S
C1216      C1217   1.403       .  A
C1216      H1221   1.084       .  S
C1217      C1218   1.410       .  A
C1218      O1222   1.371       .  S
C1219      C1224   1.409       .  A
C1219      C1228   1.406       .  A
O1220      H1236   0.992       .  S
O1222      H1233   0.992       .  S
C1224      C2797   1.401       .  A
C1224      O2801   1.371       .  S
C1225      C2796   1.400       .  A
C1225      C2798   1.402       .  A
C1225      H1230   1.084       .  S
C1226      C2412   1.483       .  S
C1226      C2797   1.403       .  A
C1226      C1227   1.406       .  A
C1227      C1228   1.402       .  A
C1228      H1232   1.083       .  S
O1229      C2796   1.371       .  S
O1229      H1234   0.992       .  S
O1231      H1235   0.992       .  S
C1237      C1238   1.403       .  A
C1237      C1242   1.400       .  A
C1237      H1247   1.083       .  S
C1238      C1243   1.484       .  S
C1238      C1239   1.411       .  A
C1239      C1240   1.402       .  A
C1239      O1244   1.372       .  S
C1240      C1241   1.401       .  A
C1240      H2817   1.084   1_455  S
C1241      C2413   1.483       .  S
C1241      C1242   1.409       .  A
C1242      O1246   1.372       .  S
C1243      C1248   1.407       .  A
C1243      C1252   1.405       .  A
O1244      H1260   0.992       .  S
H1245      C2812   1.084       .  S
O1246      H1257   0.991       .  S
C1248      C1249   1.401       .  A
C1248      O1253   1.372       .  S
C1249      C1250   1.405       .  A
C1249      H1254   1.083       .  S
C1250      C1251   1.407       .  A
C1251      C1252   1.402       .  A
C1251      O1255   1.372       .  S
C1252      H1256   1.084       .  S
O1253      H1258   0.992       .  S
O1255      H1259   0.992       .  S
C1261      C1262   1.404       .  A
C1261      C1266   1.401       .  A
C1261      H1271   1.083       .  S
C1262      C1267   1.485       .  S
C1262      C1263   1.410       .  A
C1263      C1264   1.401       .  A
C1263      O1268   1.372       .  S
C1264      C1265   1.402       .  A
C1264      H1269   1.084       .  S
C1265      C1266   1.408       .  A
C1266      O1270   1.372   1_565  S
C1267      C1272   1.408       .  A
C1267      C1276   1.405       .  A
O1268      H1284   0.992       .  S
O1270      H1281   0.992       .  S
C1272      C1273   1.401       .  A
C1272      O1277   1.372       .  S
C1273      C1274   1.405       .  A
C1273      H1278   1.084       .  S
C1274      C1275   1.407       .  A
C1275      C1276   1.402       .  A
C1275      O1279   1.371       .  S
C1276      H1280   1.083       .  S
O1277      H1282   0.992       .  S
O1279      H1283   0.992       .  S
C1285      C1286   1.403       .  A
C1285      C1290   1.398       .  A
C1285      H1295   1.084       .  S
C1286      C1291   1.488       .  S
C1286      C1287   1.411       .  A
C1287      C1288   1.403       .  A
C1287      O1292   1.372       .  S
C1288      C1289   1.405       .  A
C1288      H1293   1.084       .  S
C1289      C1290   1.410       .  A
C1290      O1294   1.372       .  S
C1291      C1296   1.411       .  A
C1291      C1300   1.406       .  A
O1292      H1308   0.992       .  S
O1294      H1305   0.992       .  S
C1296      C1297   1.398   1_565  A
C1296      O1301   1.372   1_565  S
C1297      C1298   1.401   1_545  A
C1298      C1299   1.410       .  A
C1299      C1300   1.402       .  A
C1299      O1303   1.371       .  S
C1300      H1304   1.083       .  S
O1303      H1307   0.991       .  S
C1309      C1310   1.398       .  A
C1309      C1314   1.396       .  A
C1309      H1319   1.084       .  S
C1310      C1315   1.473       .  S
C1310      C1311   1.405       .  A
C1311      C1312   1.403       .  A
C1311      O1316   1.371       .  S
C1312      C1313   1.407       .  A
C1312      H1317   1.083       .  S
C1313      C1314   1.413       .  A
C1314      O1318   1.372       .  S
C1315      C1320   1.404       .  A
C1315      C1324   1.402       .  A
O1316      H1332   0.992       .  S
O1318      H1329   0.992       .  S
C1320      C2893   1.398       .  A
C1320      O2897   1.371       .  S
C1321      C2892   1.398       .  A
C1321      C2894   1.404       .  A
C1321      H1326   1.083       .  S
C1322      C2410   1.481       .  S
C1322      C2893   1.404       .  A
C1322      C1323   1.407       .  A
C1323      C1324   1.400       .  A
C1323      O1327   1.372       .  S
C1324      H1328   1.084       .  S
O1325      C2892   1.371       .  S
O1325      H1330   0.992       .  S
O1327      H1331   0.992       .  S
C1333      C1334   1.399       .  A
C1333      C1338   1.394       .  A
C1333      H1343   1.084       .  S
C1334      C1339   1.472       .  S
C1334      C1335   1.405       .  A
C1335      C1336   1.401       .  A
C1335      O1340   1.372       .  S
C1336      C1337   1.406       .  A
C1336      H1341   1.084       .  S
C1337      C1338   1.411       .  A
C1338      O1342   1.372       .  S
C1339      C1344   1.408       .  A
C1339      C1348   1.400       .  A
O1340      H1356   0.992       .  S
O1342      H1353   0.992       .  S
C1344      C1345   1.398       .  A
C1345      C1346   1.402       .  A
C1346      C2409   1.476       .  S
C1346      C1347   1.406   1_455  A
C1347      C1348   1.397   1_655  A
C1347      O1351   1.371       .  S
C1348      H1352   1.084   1_455  S
O1349      H1354   0.992       .  S
O1351      H2927   0.992       .  S
H1355      O2923   0.992       .  S
C1357      C1358   1.404       .  A
C1357      C1362   1.401       .  A
C1357      H1367   1.083       .  S
C1358      C1363   1.480       .  S
C1358      C1359   1.409       .  A
C1359      C1360   1.395       .  A
C1359      O1364   1.373       .  S
C1360      C1361   1.397       .  A
C1360      H1365   1.081       .  S
C1361      C1362   1.407       .  A
C1362      O1366   1.372       .  S
C1363      C1368   1.408       .  A
C1363      C1372   1.402       .  A
O1364      H1380   0.992       .  S
O1366      H1377   0.992       .  S
C1368      C1369   1.403       .  A
C1368      O1373   1.372       .  S
C1369      C1370   1.405       .  A
C1369      H1374   1.084       .  S
C1370      C1371   1.408       .  A
C1371      C1372   1.396       .  A
C1371      O1375   1.372       .  S
C1372      H1376   1.084       .  S
O1373      H1378   0.992       .  S
O1375      H1379   0.992       .  S
C1381      C1382   1.399       .  A
C1381      C1386   1.398       .  A
C1381      H1391   1.084       .  S
C1382      C1387   1.474   1_455  S
C1382      C1383   1.407       .  A
C1383      C1384   1.400       .  A
C1383      O2960   1.371       .  S
C1384      C1385   1.404       .  A
C1384      H1389   1.083       .  S
C1385      C1386   1.410       .  A
C1386      O1390   1.370       .  S
C1387      C2964   1.406   1_655  A
C1387      C2968   1.401       .  A
O1388      C2955   1.372       .  S
O1388      H1404   0.992       .  S
O1390      H1401   0.992       .  S
C1392      C2959   1.404       .  A
C1392      C1393   1.397       .  A
C1392      O2969   1.372       .  S
C1393      C1394   1.409       .  A
C1393      H1398   1.083       .  S
C1394      C1395   1.416       .  A
C1395      C1396   1.400       .  A
C1395      O1399   1.372       .  S
C1396      C2959   1.399       .  A
C1396      H1400   1.084       .  S
O1397      C2964   1.372       .  S
O1397      H1402   0.992       .  S
O1399      H1403   0.992       .  S
C1405      C1410   1.403       .  A
C1405      H1415   1.084       .  S
C1406      C1411   1.481   1_545  S
C1407      C1408   1.399       .  A
C1408      C1409   1.407       .  A
C1408      H1413   1.083       .  S
C1409      C1410   1.414       .  A
C1410      O1414   1.371       .  S
C1411      C1416   1.406       .  A
C1411      C1420   1.403       .  A
O1412      H1428   0.992       .  S
O1414      H1425   0.992       .  S
C1416      C1417   1.397       .  A
C1417      C1418   1.402       .  A
C1417      H1422   1.079       .  S
C1418      C1419   1.412       .  A
C1419      C1420   1.406       .  A
C1419      O1423   1.373       .  S
C1420      H1424   1.084       .  S
O1421      H1426   0.992       .  S
O1423      H1427   0.992       .  S
C1429      C1430   1.401       .  A
C1429      C1434   1.401       .  A
C1429      H1439   1.084       .  S
C1430      C1435   1.476       .  S
C1430      C1431   1.406       .  A
C1431      C1432   1.399       .  A
C1431      O1436   1.372       .  S
C1432      C1433   1.403       .  A
C1432      H1437   1.083       .  S
C1433      C1434   1.408       .  A
C1434      O1438   1.371       .  S
C1435      C1440   1.403       .  A
C1435      C1444   1.402       .  A
O1436      H1452   0.992       .  S
O1438      H1449   0.992       .  S
C1440      C1441   1.394       .  A
C1440      O1445   1.372       .  S
C1441      C1442   1.409       .  A
C1441      H1446   1.083       .  S
C1442      C1443   1.414       .  A
C1443      C1444   1.404       .  A
C1443      O1447   1.371       .  S
C1444      H1448   1.084       .  S
O1445      H1450   0.992       .  S
O1447      H1451   0.992       .  S
C1453      C1454   1.406       .  A
C1453      C1458   1.401       .  A
C1453      H1463   1.083       .  S
C1454      C3031   1.484       .  S
C1454      C1455   1.410       .  A
C1455      C1456   1.395       .  A
C1455      O1460   1.372       .  S
C1456      C1457   1.398       .  A
C1456      H1461   1.082       .  S
C1457      C1458   1.405       .  A
C1458      O1462   1.371       .  S
C1459      C3026   1.486   1_455  S
C1459      C1464   1.410       .  A
C1459      C3040   1.405   1_455  A
O1460      H1476   0.992       .  S
O1462      H1473   0.991       .  S
C1464      C1465   1.401       .  A
C1464      O1469   1.372       .  S
C1465      C1466   1.404       .  A
C1465      H1470   1.084       .  S
C1466      C1467   1.410       .  A
C1467      C3040   1.399   1_455  A
C1467      O1471   1.372       .  S
C1468      C3031   1.404       .  A
C1468      C3039   1.396       .  A
C1468      H1472   1.084       .  S
O1469      H1474   0.992       .  S
O1471      H1475   0.992       .  S
C1477      C1478   1.402       .  A
C1477      C1482   1.402       .  A
C1477      H1487   1.084       .  S
C1478      C1483   1.478       .  S
C1478      C1479   1.409       .  A
C1479      C1480   1.400       .  A
C1479      O1484   1.371       .  S
C1480      C1481   1.400       .  A
C1480      H1485   1.084       .  S
C1481      C1482   1.406       .  A
C1482      O1486   1.373       .  S
C1483      C1492   1.398       .  A
O1484      H1500   0.992       .  S
O1486      H1497   0.992       .  S
C1488      C1489   1.402       .  A
C1488      O1493   1.372       .  S
C1489      C1490   1.407       .  A
C1489      H1494   1.083       .  S
C1490      C1491   1.414       .  A
C1491      O1495   1.372   1_565  S
C1492      H1496   1.084       .  S
O1493      H1498   0.992       .  S
O1495      H1499   0.992   1_545  S
C1501      C1502   1.403       .  A
C1501      C1506   1.403       .  A
C1501      H1511   1.084       .  S
C1502      C1507   1.480       .  S
C1502      C1503   1.405       .  A
C1503      C1504   1.399       .  A
C1503      O1508   1.372       .  S
C1504      C1505   1.407       .  A
C1504      H1509   1.083       .  S
C1505      C1506   1.409       .  A
C1506      O1510   1.371       .  S
C1507      C1512   1.407       .  A
C1507      C1516   1.404       .  A
O1508      H1524   0.992       .  S
O1510      H1521   0.991       .  S
C1512      C1513   1.400       .  A
C1512      O1517   1.371       .  S
C1513      C1514   1.404       .  A
C1513      H1518   1.084       .  S
C1514      C1515   1.405       .  A
C1515      C1516   1.401       .  A
C1515      O1519   1.370       .  S
C1516      H1520   1.084       .  S
O1517      H1522   0.992       .  S
O1519      H1523   0.992       .  S
C1525      C1526   1.405       .  A
C1525      C1530   1.398       .  A
C1526      C1527   1.413       .  A
C1527      C1528   1.401       .  A
C1527      O1532   1.372       .  S
C1528      C1529   1.403       .  A
C1528      H1533   1.079       .  S
C1529      C1530   1.411       .  A
C1530      O1534   1.371       .  S
C1531      C1536   1.415       .  A
C1531      C1540   1.409       .  A
O1532      H1548   0.992       .  S
O1534      H1545   0.992       .  S
C1536      C1537   1.399       .  A
C1536      O1541   1.371       .  S
C1537      C1538   1.398       .  A
C1537      H1542   1.083       .  S
C1538      C1539   1.404       .  A
C1539      C1540   1.402       .  A
C1539      O1543   1.371       .  S
C1540      H1544   1.083       .  S
O1541      H1546   0.992       .  S
O1543      H1547   0.992       .  S
C1549      C1550   1.402       .  A
C1549      C1554   1.400       .  A
C1549      H1559   1.084       .  S
C1550      C3127   1.478   1_455  S
C1550      C1551   1.407       .  A
C1551      C1552   1.400       .  A
C1551      O1556   1.372       .  S
C1552      C1553   1.400       .  A
C1552      H1557   1.080       .  S
C1553      C1554   1.411       .  A
C1554      O1558   1.372       .  S
C1555      C3122   1.481       .  S
C1555      C1560   1.409       .  A
C1555      C1564   1.402       .  A
O1556      H1572   0.992       .  S
O1558      H1569   0.990       .  S
C1560      C1561   1.401       .  A
C1560      O1565   1.371       .  S
C1561      C1562   1.402       .  A
C1561      H1566   1.084       .  S
C1562      C1563   1.409       .  A
C1563      C1564   1.400       .  A
C1563      O1567   1.371       .  S
C1564      H3140   1.084       .  S
O1565      H1570   0.992       .  S
O1567      H1571   0.991       .  S
H1568      C3136   1.084       .  S
C1573      H1574   1.111       .  S
C1573      C1579   1.542       .  S
C1573      C1578   1.543       .  S
C1573      C1577   1.545       .  S
C1575      H1576   1.112       .  S
C1575      C1581   1.531       .  S
C1575      C1580   1.530       .  S
C1575      C1582   1.529       .  S
C1577      C1580   1.375       .  D
C1577      C2348   1.485       .  S
C1578      C1581   1.373       .  D
C1578      C2300   1.485       .  S
C1579      C1582   1.368       .  D
C1579      C2324   1.480       .  S
C1580      C2243   1.481       .  S
C1581      C2219   1.480       .  S
C1582      C2267   1.477       .  S
C1583      H1584   1.111       .  S
C1583      C1589   1.531       .  S
C1583      C1588   1.532       .  S
C1583      C1587   1.536       .  S
C1585      H1586   1.111       .  S
C1585      C1591   1.546       .  S
C1585      C1590   1.538       .  S
C1585      C1592   1.546       .  S
C1587      C1590   1.372       .  D
C1587      C2147   1.477       .  S
C1588      C1591   1.377       .  D
C1588      C2204   1.489       .  S
C1589      C1592   1.376       .  D
C1589      C2171   1.487       .  S
C1590      C2291   1.489       .  S
C1591      C2315   1.492       .  S
C1592      C2339   1.488       .  S
O1593     Ni1599   1.928       .  S
O1593      C1614   1.271       .  A
O1594     Ni1617   1.910       .  S
O1594      C1603   1.268       .  A
O1595     Ni1599   1.903       .  S
O1595     Ni1617   1.906       .  S
O1595     Ni1611   1.906       .  S
O1595      H1618   0.966       .  S
C1596      O1613   1.278       .  A
C1596      O1605   1.277       .  A
C1596      C2123   1.479       .  S
O1597     Ni1616   1.928       .  S
O1597      C1603   1.271       .  A
O1598     Ni1616   1.910       .  S
O1598      C1600   1.269       .  A
Ni1599     O1602   1.927       .  S
Ni1599     O1604   1.904       .  S
C1600      O1610   1.270       .  A
C1600      C2075   1.479       .  S
O1601     Ni1617   1.913       .  S
O1601      C1607   1.276       .  A
O1602      C1607   1.279       .  A
C1603      C2276   1.482       .  S
O1604      C1606   1.266       .  A
O1605     Ni1616   1.917       .  S
C1606      O1612   1.270       .  A
C1606      C2252   1.480       .  S
C1607      C2228   1.487       .  S
H1608      O1609   0.966       .  S
O1609     Ni1617   1.912       .  S
O1609     Ni1611   1.903       .  S
O1609     Ni1616   1.903       .  S
O1610     Ni1611   1.922       .  S
Ni1611     O1615   1.909       .  S
Ni1611     O1613   1.923       .  S
O1612     Ni1617   1.928       .  S
C1614      O1615   1.268       .  A
C1614      C2099   1.478       .  S
C1619      H1620   1.111       .  S
C1619      C2411   1.530   1_545  S
C1619      C1624   1.531   1_655  S
C1619      C2409   1.529   1_645  S
C1621      H1622   1.111       .  S
C1621      C1627   1.541   1_655  S
C1621      C2412   1.539   1_645  S
C1621      C2414   1.544   1_545  S
C1623      C2405   1.531   1_455  S
C1623      C1626   1.375       .  D
C1624      C1627   1.374       .  D
C1625      C2405   1.531       .  S
C1625      C1628   1.376       .  D
C1625      C2084   1.483       .  S
C1626      C2407   1.541   1_455  S
C1628      C2407   1.542       .  S
C1628      C2051   1.484       .  S
C1629      H1630   1.111       .  S
C1629      C1635   1.545       .  S
C1629      C1634   1.544       .  S
C1629      C1633   1.543       .  S
C1631      H1632   1.111       .  S
C1631      C1637   1.535       .  S
C1631      C1636   1.532       .  S
C1631      C1638   1.530       .  S
C1633      C1636   1.373       .  D
C1633      C2036   1.493       .  S
C1634      C1637   1.376       .  D
C1634      C2060   1.481       .  S
C1635      C1638   1.373       .  D
C1635      C2003   1.486       .  S
C1636      C1964   1.477       .  S
C1637      C1940   1.494       .  S
C1638      C1979   1.480       .  S
C1639      H1640   1.111       .  S
C1639      C1645   1.543       .  S
C1639      C1644   1.538       .  S
C1639      C1643   1.538       .  S
C1641      H1642   1.112       .  S
C1641      C1647   1.527       .  S
C1641      C1646   1.527       .  S
C1641      C1648   1.532       .  S
C1643      C1646   1.373       .  D
C1643      C1868   1.478       .  S
C1644      C1647   1.372       .  D
C1644      C1883   1.476       .  S
C1645      C1648   1.378       .  D
C1645      C1916   1.491       .  S
C1646      C1835   1.480       .  S
C1647      C1820   1.480       .  S
C1648      C1787   1.483       .  S
C1649      H1650   1.109       .  S
C1649      C1655   1.537       .  S
C1649      C2440   1.546       .  S
C1649      C2439   1.552       .  S
C1651      H1652   1.112       .  S
C1651      C2443   1.523       .  S
C1651      C2442   1.533       .  S
C1651      C1658   1.530       .  S
C1653      C2435   1.550       .  S
C1653      C1656   1.385       .  D
C1653      C1892   1.501       .  S
C1654      C2435   1.545       .  S
C1654      C1657   1.368       .  D
C1655      C1658   1.367       .  D
C1656      C2437   1.534       .  S
C1656      C1715   1.486       .  S
C1657      C2437   1.525       .  S
O1659     Ni1665   1.937       .  S
O1659      C1680   1.274       .  A
O1660     Ni1683   1.916       .  S
O1660      C1669   1.269       .  A
O1661     Ni1665   1.903       .  S
O1661     Ni1683   1.905       .  S
O1661     Ni1677   1.915       .  S
O1661      H1684   0.966       .  S
C1662      O1679   1.281       .  A
C1662      O1671   1.277       .  A
C1662      C2156   1.476       .  S
O1663     Ni1682   1.913       .  S
O1663      C1669   1.267       .  A
O1664     Ni1682   1.904       .  S
O1664      C1666   1.268       .  A
Ni1665     O1668   1.925       .  S
Ni1665     O1670   1.910       .  S
C1666      O1676   1.271       .  A
C1666      C2180   1.489       .  S
O1667     Ni1683   1.921       .  S
O1667      C1673   1.278       .  A
O1668      C1673   1.279       .  A
C1669      C1739   1.481       .  S
O1670      C1672   1.269       .  A
O1671     Ni1682   1.913       .  S
C1672      O1678   1.269       .  A
C1672      C1724   1.472       .  S
C1673      C1763   1.480       .  S
H1674      O1675   0.966       .  S
O1675     Ni1683   1.913       .  S
O1675     Ni1677   1.895       .  S
O1675     Ni1682   1.894       .  S
O1676     Ni1677   1.927       .  S
Ni1677     O1681   1.906       .  S
Ni1677     O1679   1.927       .  S
O1678     Ni1683   1.921       .  S
C1680      O1681   1.268       .  A
C1680      C2195   1.480       .  S
O1685     Ni1691   1.914       .  S
O1685      C1706   1.270   1_554  A
O1686      C1695   1.266       .  A
O1687     Ni1691   1.917       .  S
O1687     Ni2495   1.911   1_545  S
O1687      H1710   0.968       .  S
C1688      O1705   1.277       .  A
C1688      O1697   1.276       .  A
C1688      C1931   1.488       .  S
O1689     Ni1708   1.928       .  S
O1689      C1695   1.270       .  A
O1690     Ni1708   1.904   1_556  S
Ni1691     O1694   1.929       .  S
Ni1691     O1696   1.897       .  S
C1692      O1702   1.270       .  A
C1692      C1988   1.474       .  S
O1693     Ni2495   1.903   1_545  S
O1693      C1699   1.266       .  A
O1694      C1699   1.271       .  A
C1695      C1796   1.488       .  S
O1697     Ni1708   1.924   1_556  S
C1698      O1704   1.280       .  A
C1698      C1844   1.486       .  S
C1699      C1811   1.476       .  S
H1700      O1701   0.964       .  S
O1701     Ni2489   1.914       .  S
O1701     Ni1708   1.912       .  S
Ni1703     O2491   1.922   1_544  S
Ni1703     O2487   1.915   1_545  S
O1705     Ni2489   1.930   1_556  S
C1706      O1707   1.268       .  A
C1706      C1955   1.484       .  S
Ni1709     O2479   1.910       .  S
Ni1709     O2473   1.918       .  S
C1711      C1712   1.405       .  A
C1711      C1716   1.403       .  A
C1711      H1721   1.083       .  S
C1712      C1717   1.480       .  S
C1712      C1713   1.406       .  A
C1713      C1714   1.395       .  A
C1713      O1718   1.373       .  S
C1714      C1715   1.402       .  A
C1714      H1719   1.081   1_545  S
C1715      C1716   1.409       .  A
C1716      O1720   1.371       .  S
C1717      C1722   1.409       .  A
C1717      C1726   1.404       .  A
O1718      H1734   0.992   1_545  S
O1720      H1731   0.991       .  S
C1722      C1723   1.398       .  A
C1722      O1727   1.372       .  S
C1723      C1724   1.402       .  A
C1723      H1728   1.084       .  S
C1724      C1725   1.407       .  A
C1725      C1726   1.402       .  A
C1725      O1729   1.371       .  S
C1726      H1730   1.084       .  S
O1727      H1732   0.992       .  S
O1729      H1733   0.992       .  S
C1735      C1736   1.399       .  A
C1735      C1740   1.394       .  A
C1735      H1745   1.084       .  S
C1736      C1741   1.477       .  S
C1736      C1737   1.407       .  A
C1737      C1738   1.403       .  A
C1737      O1742   1.371       .  S
C1738      C1739   1.406       .  A
C1738      H1743   1.083       .  S
C1739      C1740   1.414       .  A
C1740      O1744   1.372       .  S
C1741      C1746   1.408       .  A
C1741      C1750   1.402       .  A
O1742      H1758   0.992       .  S
O1744      H1755   0.992       .  S
C1746      C1747   1.398       .  A
C1746      O1751   1.372       .  S
C1747      C1748   1.399       .  A
C1747      H1752   1.082       .  S
C1749      O1753   1.372       .  S
O1751      H1756   0.992       .  S
O1753      H1757   0.991       .  S
C1759      C1760   1.404       .  A
C1759      C1764   1.403       .  A
C1759      H1769   1.084       .  S
C1760      C1765   1.483       .  S
C1760      C1761   1.408       .  A
C1761      C1762   1.399       .  A
C1761      O1766   1.373       .  S
C1762      C1763   1.404       .  A
C1762      H1767   1.084       .  S
C1763      C1764   1.412       .  A
C1764      O1768   1.372       .  S
C1765      C1770   1.410       .  A
C1765      C1774   1.404       .  A
O1766      H1782   0.992       .  S
O1768      H1779   0.992       .  S
C1770      C1771   1.398       .  A
C1770      O1775   1.371   1_545  S
C1771      C1772   1.399       .  A
C1771      H1776   1.083   1_545  S
C1772      C1773   1.406       .  A
C1773      C1774   1.402       .  A
C1774      H1778   1.083       .  S
O1775      H1780   0.992       .  S
O1777      H1781   0.992       .  S
C1783      C1784   1.404       .  A
C1783      C1788   1.401       .  A
C1783      H1793   1.083       .  S
C1784      C1789   1.482       .  S
C1784      C1785   1.408       .  A
C1785      C1786   1.398       .  A
C1785      O1790   1.373       .  S
C1786      C1787   1.402       .  A
C1786      H1791   1.084       .  S
C1787      C1788   1.409       .  A
C1788      O1792   1.371       .  S
C1789      C1794   1.407       .  A
C1789      C1798   1.403       .  A
O1790      H1806   0.992       .  S
O1792      H1803   0.991       .  S
C1794      C1795   1.396       .  A
C1794      O1799   1.372       .  S
C1795      C1796   1.407       .  A
C1795      H1800   1.083       .  S
C1796      C1797   1.414       .  A
C1797      C1798   1.404       .  A
C1798      H1802   1.084       .  S
O1799      H1804   0.992       .  S
O1801      H1805   0.992       .  S
C1807      C1808   1.403       .  A
C1807      C1812   1.400       .  A
C1807      H1817   1.083       .  S
C1808      C1813   1.476       .  S
C1808      C1809   1.406       .  A
C1809      C1810   1.394       .  A
C1809      O1814   1.372       .  S
C1810      C1811   1.405       .  A
C1810      H1815   1.084       .  S
C1811      C1812   1.411       .  A
C1812      O1816   1.372       .  S
C1813      C1818   1.406       .  A
C1813      C1822   1.402       .  A
O1814      H1830   0.992       .  S
O1816      H1827   0.992       .  S
C1818      C1819   1.399       .  A
C1818      O1823   1.372       .  S
C1819      C1820   1.404       .  A
C1819      H1824   1.080       .  S
C1820      C1821   1.406       .  A
C1821      C1822   1.396       .  A
C1821      O1825   1.371       .  S
C1822      H1826   1.084       .  S
O1823      H1828   0.992       .  S
O1825      H1829   0.991       .  S
C1831      C1832   1.399       .  A
C1831      C1836   1.397       .  A
C1831      H1841   1.084       .  S
C1832      C1837   1.471       .  S
C1832      C1833   1.407       .  A
C1833      C1834   1.399       .  A
C1833      O1838   1.371       .  S
C1834      C1835   1.402       .  A
C1834      H1839   1.084       .  S
C1835      C1836   1.409       .  A
C1836      O1840   1.371       .  S
C1837      C1842   1.403       .  A
C1837      C1846   1.397       .  A
O1838      H1854   0.992       .  S
O1840      H1851   0.992       .  S
C1842      C1843   1.401       .  A
C1842      O1847   1.371       .  S
C1843      C1844   1.409       .  A
C1843      H1848   1.083       .  S
C1844      C1845   1.417       .  A
C1845      C1846   1.396       .  A
O1847      H1852   0.992       .  S
O1849      H1853   0.992       .  S
C1855      C1856   1.404       .  A
C1855      C1860   1.399       .  A
C1855      H1865   1.083       .  S
C1856      C1861   1.478       .  S
C1856      C1857   1.409       .  A
C1858      H1863   1.078       .  S
C1859      C1860   1.405       .  A
C1860      O2650   1.372   1_545  S
C1861      C1866   1.408       .  A
C1861      C1870   1.404       .  A
O1862      H1878   0.992       .  S
O1864      C2646   1.371       .  S
O1864      H1875   0.992       .  S
C1866      C1867   1.397       .  A
C1866      O1871   1.372       .  S
C1867      C1868   1.403       .  A
C1867      H1872   1.083       .  S
C1868      C1869   1.406       .  A
C1869      C1870   1.397       .  A
C1869      O1873   1.371       .  S
C1870      H1874   1.084       .  S
O1871      H1876   0.992       .  S
O1873      H1877   0.992       .  S
C1879      C1880   1.408       .  A
C1879      C1884   1.400       .  A
C1879      H1889   1.083       .  S
C1880      C1885   1.489       .  S
C1880      C1881   1.411       .  A
C1881      C1882   1.402       .  A
C1881      O1886   1.373       .  S
C1882      C1883   1.401       .  A
C1882      H1887   1.084       .  S
C1883      C1884   1.402       .  A
C1884      O1888   1.372       .  S
C1885      C1890   1.409       .  A
C1885      C1894   1.402       .  A
O1886      H1902   0.992       .  S
O1888      H1899   0.992       .  S
C1890      C1891   1.400       .  A
C1890      O1895   1.371       .  S
C1891      C1892   1.408       .  A
C1891      H1896   1.082       .  S
C1892      C1893   1.412       .  A
C1893      C1894   1.403       .  A
C1893      O1897   1.370       .  S
C1894      H1898   1.084       .  S
O1895      H1900   0.992       .  S
O1897      H1901   0.992       .  S
C1903      C1904   1.408       .  A
C1903      C1908   1.401       .  A
C1903      H1913   1.082       .  S
C1904      C1909   1.499       .  S
C1904      C1905   1.417       .  A
C1906      H1911   1.083       .  S
C1907      C1908   1.404       .  A
C1908      O1912   1.370       .  S
C1909      C1914   1.417       .  A
C1909      C1918   1.406       .  A
O1910      H1926   0.992       .  S
O1912      H1923   0.992       .  S
C1914      C1915   1.404       .  A
C1914      O1919   1.372       .  S
C1915      C1916   1.403       .  A
C1915      H1920   1.083       .  S
C1916      C1917   1.409       .  A
C1917      C1918   1.398       .  A
C1917      O1921   1.371       .  S
C1918      H1922   1.082       .  S
O1919      H1924   0.992       .  S
O1921      H1925   0.991       .  S
C1927      C1928   1.401       .  A
C1927      C1932   1.401       .  A
C1927      H1937   1.084       .  S
C1928      C1933   1.486       .  S
C1928      C1929   1.409       .  A
C1929      C1930   1.408       .  A
C1929      O1934   1.371       .  S
C1930      C1931   1.407       .  A
C1930      H1935   1.083       .  S
C1931      C1932   1.413       .  A
C1932      O1936   1.372       .  S
C1933      C1938   1.408       .  A
C1933      C1942   1.403       .  A
O1934      H1950   0.992       .  S
O1936      H1947   0.992       .  S
C1938      C1939   1.403       .  A
C1938      O1943   1.371       .  S
C1939      C1940   1.405       .  A
C1939      H1944   1.083       .  S
C1940      C1941   1.411       .  A
C1941      C1942   1.405       .  A
C1941      O1945   1.372       .  S
C1942      H1946   1.084       .  S
O1943      H1948   0.992       .  S
O1945      H1949   0.992       .  S
C1951      C1952   1.403       .  A
C1951      C1956   1.403       .  A
C1951      H1961   1.084       .  S
C1952      C1957   1.475       .  S
C1952      C1953   1.404       .  A
C1953      C1954   1.395       .  A
C1953      O1958   1.373       .  S
C1954      C1955   1.408       .  A
C1954      H1959   1.083       .  S
C1955      C1956   1.413       .  A
C1956      O1960   1.371       .  S
C1957      C1962   1.409       .  A
C1957      C1966   1.401       .  A
O1958      H1974   0.992       .  S
O1960      H1971   0.992       .  S
C1962      C1963   1.396       .  A
C1962      O1967   1.372       .  S
C1963      C1964   1.400       .  A
C1963      H1968   1.084       .  S
C1964      C1965   1.408       .  A
C1965      C1966   1.400       .  A
C1965      O1969   1.372       .  S
C1966      H1970   1.084       .  S
O1967      H1972   0.992       .  S
O1969      H1973   0.992       .  S
C1975      C1976   1.406       .  A
C1975      C1980   1.397       .  A
C1975      H1985   1.084       .  S
C1976      C1981   1.489       .  S
C1976      C1977   1.412       .  A
C1977      C1978   1.404       .  A
C1977      O1982   1.372       .  S
C1978      C1979   1.402       .  A
C1978      H1983   1.084       .  S
C1979      C1980   1.404       .  A
C1980      O1984   1.371       .  S
C1981      C1986   1.413       .  A
C1981      C1990   1.406       .  A
O1982      H1998   0.992       .  S
O1984      H1995   0.991       .  S
C1986      C1987   1.403       .  A
C1986      O1991   1.371       .  S
C1987      C1988   1.403       .  A
C1988      C1989   1.406       .  A
C1989      C1990   1.397       .  A
C1989      O1993   1.372       .  S
C1990      H1994   1.084       .  S
O1993      H1997   0.992   1_556  S
C1999      C2000   1.403       .  A
C1999      C2004   1.401       .  A
C1999      H2009   1.083       .  S
C2000      C2005   1.485       .  S
C2000      C2001   1.410       .  A
C2001      C2002   1.402       .  A
C2001      O2006   1.371       .  S
C2002      C2003   1.402       .  A
C2002      H2007   1.084       .  S
C2003      C2004   1.411       .  A
C2004      O2008   1.371       .  S
C2005      C2010   1.408       .  A
C2005      C2014   1.405       .  A
O2006      H2022   0.992       .  S
O2008      H2019   0.991       .  S
C2011      H2016   1.083   1_455  S
C2012      C2013   1.407       .  A
C2013      C2014   1.403       .  A
C2013      O2803   1.371       .  S
C2014      H2018   1.084       .  S
O2015      H2020   0.992       .  S
O2017      C2799   1.371   1_545  S
O2017      H2021   0.991       .  S
C2023      C2024   1.403       .  A
C2023      C2028   1.401       .  A
C2023      H2033   1.083       .  S
C2024      C2029   1.488       .  S
C2024      C2025   1.411       .  A
C2025      C2026   1.405       .  A
C2025      O2030   1.371       .  S
C2026      C2027   1.403       .  A
C2027      C2028   1.410       .  A
C2028      O2032   1.371       .  S
C2029      C2034   1.408       .  A
C2029      C2038   1.405       .  A
O2030      H2046   0.992       .  S
O2032      H2043   0.991       .  S
C2034      C2035   1.402       .  A
C2034      O2039   1.372       .  S
C2035      C2036   1.406       .  A
C2035      H2040   1.083       .  S
C2036      C2037   1.408       .  A
C2037      C2038   1.405       .  A
C2037      O2041   1.371       .  S
C2038      H2042   1.083       .  S
O2039      H2044   0.992       .  S
O2041      H2045   0.992       .  S
C2047      C2048   1.404       .  A
C2047      C2052   1.400       .  A
C2047      H2057   1.083       .  S
C2048      C2053   1.486       .  S
C2048      C2049   1.410       .  A
C2049      C2050   1.401       .  A
C2049      O2054   1.372       .  S
C2050      C2051   1.402       .  A
C2050      H2055   1.084       .  S
C2051      C2052   1.409       .  A
C2052      O2056   1.371       .  S
C2053      C2058   1.410       .  A
C2053      C2062   1.405       .  A
O2054      H2070   0.992       .  S
O2056      H2067   0.992       .  S
C2058      C2059   1.401       .  A
C2058      O2063   1.371       .  S
C2059      C2060   1.402       .  A
C2059      H2064   1.084       .  S
C2060      C2061   1.406       .  A
C2061      C2062   1.401       .  A
C2061      O2065   1.372       .  S
C2062      H2066   1.083       .  S
O2063      H2068   0.992       .  S
O2065      H2069   0.992       .  S
C2071      C2072   1.403       .  A
C2071      C2076   1.396       .  A
C2071      H2081   1.084       .  S
C2072      C2077   1.484       .  S
C2072      C2073   1.410       .  A
C2073      C2074   1.402       .  A
C2073      O2078   1.371       .  S
C2074      C2075   1.405       .  A
C2074      H2079   1.084       .  S
C2075      C2076   1.410       .  A
C2076      O2080   1.372       .  S
C2077      C2082   1.410       .  A
C2077      C2086   1.405       .  A
O2078      H2094   0.992       .  S
O2080      H2091   0.992       .  S
C2082      C2083   1.395       .  A
C2082      O2087   1.372       .  S
C2083      C2084   1.401       .  A
C2083      H2874   1.084       .  S
C2084      C2085   1.410       .  A
C2085      C2086   1.401       .  A
C2085      O2089   1.371       .  S
C2086      H2090   1.083       .  S
O2087      H2878   0.992       .  S
H2088      C2869   1.084       .  S
O2089      H2093   0.991       .  S
H2092      O2873   0.992       .  S
C2095      C2096   1.399       .  A
C2095      C2100   1.397       .  A
C2095      H2105   1.084       .  S
C2096      C2101   1.473       .  S
C2096      C2097   1.406       .  A
C2097      C2098   1.402       .  A
C2097      O2102   1.371       .  S
C2098      C2099   1.406       .  A
C2098      H2103   1.084       .  S
C2099      C2100   1.412       .  A
C2100      O2104   1.372       .  S
C2101      C2106   1.406       .  A
C2101      C2110   1.402       .  A
O2102      H2118   0.992       .  S
O2104      H2115   0.992       .  S
C2107      H2112   1.083   1_455  S
C2108      C2109   1.406       .  A
C2109      C2110   1.399       .  A
C2109      O2113   1.372       .  S
C2110      H2114   1.084       .  S
O2111      H2116   0.992   1_455  S
O2113      H2117   0.991       .  S
C2119      C2120   1.400       .  A
C2119      C2124   1.395       .  A
C2119      H2129   1.084       .  S
C2120      C2125   1.475       .  S
C2120      C2121   1.406       .  A
C2121      C2122   1.403       .  A
C2121      O2126   1.372       .  S
C2122      C2123   1.407       .  A
C2122      H2127   1.084       .  S
C2123      C2124   1.411       .  A
C2124      O2128   1.372       .  S
C2125      C2130   1.407       .  A
C2125      C2134   1.402       .  A
O2126      H2142   0.992       .  S
O2128      H2139   0.992       .  S
C2130      C2131   1.399       .  A
C2130      O2921   1.372       .  S
C2131      C2132   1.404       .  A
C2131      H2922   1.084       .  S
C2132      C2133   1.407       .  A
C2133      C2134   1.398       .  A
C2133      O2137   1.372       .  S
C2134      H2138   1.084       .  S
O2135      C2916   1.371       .  S
O2135      H2140   0.992       .  S
H2136      C2917   1.083       .  S
C2143      C2144   1.405       .  A
C2143      C2148   1.400       .  A
C2143      H2153   1.083       .  S
C2144      C2149   1.485       .  S
C2144      C2145   1.412       .  A
C2145      C2146   1.399       .  A
C2145      O2150   1.373       .  S
C2146      C2147   1.399       .  A
C2146      H2151   1.081       .  S
C2147      C2148   1.405       .  A
C2148      O2152   1.372       .  S
C2149      C2154   1.411       .  A
C2149      C2158   1.403       .  A
O2150      H2166   0.992       .  S
O2152      H2163   0.992       .  S
C2154      C2155   1.402       .  A
C2154      O2159   1.372       .  S
C2155      C2156   1.403       .  A
C2155      H2160   1.084       .  S
C2156      C2157   1.410       .  A
C2157      C2158   1.397       .  A
C2157      O2161   1.372       .  S
C2158      H2162   1.083       .  S
O2159      H2164   0.992       .  S
O2161      H2165   0.992       .  S
C2167      C2168   1.401       .  A
C2167      C2172   1.400       .  A
C2167      H2177   1.084       .  S
C2168      C2173   1.479       .  S
C2168      C2169   1.407       .  A
C2169      C2170   1.401       .  A
C2170      C2171   1.404       .  A
C2170      H2175   1.083       .  S
C2171      C2172   1.409       .  A
C2172      O2176   1.371       .  S
O2174      H2190   0.992       .  S
O2176      H2187   0.991       .  S
C2178      C2179   1.397       .  A
C2179      C2180   1.409       .  A
C2179      H2184   1.083       .  S
C2180      C2181   1.415       .  A
C2181      C2182   1.403       .  A
C2181      O2185   1.371       .  S
C2182      H2186   1.084       .  S
O2183      H2188   0.992       .  S
O2185      H2189   0.992       .  S
C2191      C2978   1.401       .  A
C2191      C2196   1.400       .  A
C2191      H2201   1.084       .  S
C2192      C2197   1.477       .  S
C2192      C2977   1.401       .  A
C2192      C2979   1.404       .  A
C2193      C2978   1.405       .  A
C2193      C2194   1.401       .  A
C2193      O2984   1.372   1_545  S
C2194      C2195   1.406       .  A
C2194      H2199   1.084       .  S
C2195      C2196   1.411       .  A
C2196      O2200   1.372       .  S
C2197      C2202   1.405       .  A
C2197      C2206   1.402       .  A
O2198      C2979   1.373       .  S
O2198      H2214   0.992       .  S
O2200      H2211   0.992       .  S
C2202      C2203   1.396       .  A
C2202      O2993   1.372       .  S
C2203      C2204   1.400       .  A
C2203      H2208   1.080       .  S
C2204      C2205   1.413       .  A
C2205      C2206   1.407       .  A
C2205      O2209   1.372       .  S
C2206      H2210   1.083       .  S
O2207      C2988   1.372       .  S
O2207      H2212   0.992       .  S
O2209      H2213   0.992       .  S
C2215      C2216   1.400       .  A
C2215      C2220   1.399       .  A
C2215      H2225   1.084       .  S
C2216      C2221   1.474       .  S
C2216      C2217   1.407       .  A
C2217      C2218   1.400       .  A
C2217      O2222   1.372       .  S
C2218      C2219   1.402       .  A
C2218      H2223   1.084       .  S
C2219      C2220   1.408       .  A
C2220      O2224   1.371       .  S
C2221      C2226   1.403       .  A
C2221      C2230   1.401       .  A
O2222      H2238   0.992       .  S
O2224      H2235   0.992       .  S
C2226      C2227   1.395       .  A
C2226      O2231   1.372       .  S
C2227      C2228   1.409       .  A
C2227      H2232   1.083       .  S
C2228      C2229   1.415       .  A
C2229      C2230   1.402       .  A
C2229      O2233   1.371       .  S
C2230      H2234   1.084       .  S
O2231      H2236   0.992       .  S
O2233      H2237   0.992       .  S
C2239      C2240   1.407       .  A
C2239      C2244   1.402       .  A
C2239      H2249   1.083       .  S
C2240      C2241   1.412       .  A
C2241      C2242   1.397       .  A
C2241      O2246   1.372       .  S
C2242      C2243   1.400       .  A
C2242      H2247   1.081       .  S
C2243      C2244   1.406       .  A
C2244      O2248   1.372       .  S
C2245      C2250   1.408       .  A
O2246      H2262   0.992       .  S
O2248      H2259   0.992       .  S
C2250      C2251   1.401       .  A
C2250      O2255   1.372       .  S
C2251      C2252   1.405       .  A
C2251      H2256   1.084       .  S
C2252      C2253   1.410       .  A
C2253      O2257   1.372       .  S
C2254      H2258   1.083       .  S
O2255      H2260   0.992       .  S
O2257      H2261   0.992       .  S
C2263      C2264   1.401       .  A
C2263      C2268   1.400       .  A
C2263      H2273   1.084       .  S
C2264      C2269   1.476       .  S
C2264      C2265   1.408       .  A
C2265      C2266   1.401       .  A
C2265      O2270   1.371       .  S
C2266      C2267   1.401       .  A
C2266      H2271   1.084       .  S
C2267      C2268   1.406       .  A
C2268      O2272   1.372       .  S
C2269      C3060   1.404   1_545  A
C2269      C2278   1.400       .  A
O2270      H2286   0.992       .  S
O2272      H2283   0.991       .  S
C2274      C3055   1.406       .  A
C2274      C2275   1.401       .  A
C2274      O2279   1.372       .  S
C2275      C2276   1.407       .  A
C2275      H2280   1.084       .  S
C2276      C2277   1.412       .  A
C2277      C3064   1.400       .  A
C2277      O2281   1.372       .  S
C2278      C3063   1.400   1_545  A
C2278      H2282   1.084       .  S
O2279      H2284   0.992       .  S
O2281      H2285   0.992       .  S
C2287      C2288   1.403       .  A
C2287      C2292   1.401       .  A
C2287      H2297   1.084       .  S
C2288      C2293   1.486       .  S
C2288      C2289   1.409       .  A
C2289      C2290   1.403       .  A
C2289      O2294   1.371       .  S
C2290      C2291   1.405       .  A
C2290      H2295   1.083       .  S
C2291      C2292   1.408       .  A
C2292      O2296   1.371       .  S
C2293      C2298   1.409       .  A
C2293      C2302   1.405       .  A
O2294      H2310   0.992       .  S
O2296      H2307   0.991       .  S
C2298      C2299   1.403       .  A
C2298      O2303   1.371       .  S
C2299      C2300   1.404       .  A
C2299      H2304   1.084       .  S
C2300      C2301   1.405       .  A
C2301      C2302   1.401       .  A
C2301      O2305   1.370       .  S
C2302      H2306   1.084       .  S
O2303      H2308   0.992       .  S
O2305      H2309   0.992       .  S
C2311      C2312   1.404       .  A
C2311      C2316   1.397       .  A
C2311      H3107   1.083       .  S
C2312      C3103   1.491       .  S
C2312      C2313   1.412       .  A
C2313      C2314   1.402       .  A
C2313      O2318   1.372       .  S
C2314      C2315   1.402       .  A
C2314      H2319   1.079       .  S
C2315      C2316   1.412       .  A
C2316      O2320   1.371       .  S
C2317      C3098   1.495   1_545  S
C2317      C2322   1.415       .  A
C2317      C2326   1.408       .  A
O2318      H2334   0.992       .  S
O2320      H2331   0.992       .  S
H2321      C3097   1.083   1_545  S
C2322      C2323   1.401       .  A
C2322      O2327   1.371       .  S
C2323      C2324   1.399       .  A
C2323      H2328   1.083       .  S
C2324      C2325   1.405       .  A
C2325      C2326   1.402       .  A
C2325      O2329   1.372       .  S
C2326      H2330   1.083       .  S
O2327      H2332   0.992       .  S
O2329      H2333   0.991       .  S
C2335      C2336   1.402       .  A
C2335      C2340   1.403       .  A
C2335      H2345   1.084       .  S
C2336      C2337   1.406       .  A
C2337      C2338   1.400       .  A
C2337      O2342   1.372       .  S
C2338      C2339   1.401       .  A
C2338      H2343   1.079       .  S
C2339      C2340   1.412       .  A
C2340      O2344   1.372       .  S
C2341      C2346   1.409       .  A
C2341      C2350   1.402       .  A
O2342      H2358   0.992       .  S
O2344      H2355   0.991       .  S
C2346      C2347   1.402       .  A
C2346      O2351   1.371       .  S
C2347      C2348   1.402       .  A
C2347      H2352   1.084       .  S
C2348      C2349   1.410       .  A
C2349      C2350   1.401       .  A
C2349      O2353   1.371       .  S
O2351      H2356   0.992       .  S
O2353      H2357   0.991       .  S
C2359      H2360   1.111       .  S
C2359      C2365   1.538       .  S
C2359      C2364   1.539       .  S
C2359      C2363   1.541       .  S
C2361      H2362   1.111       .  S
C2361      C2367   1.535       .  S
C2361      C2366   1.530       .  S
C2361      C2368   1.528       .  S
C2363      C2366   1.374       .  D
C2363      C3134   1.479       .  S
C2364      C2367   1.375       .  D
C2364      C3086   1.489       .  S
C2365      C2368   1.368       .  D
C2365      C3110   1.476       .  S
C2366      C3029   1.480       .  S
C2367      C3005   1.480       .  S
C2368      C3053   1.477       .  S
C2369      H2370   1.112       .  S
C2369      C2375   1.525       .  S
C2369      C2374   1.528       .  S
C2369      C2373   1.532       .  S
C2371      H2372   1.111       .  S
C2371      C2377   1.550       .  S
C2371      C2376   1.541       .  S
C2371      C2378   1.548       .  S
C2373      C2376   1.370       .  D
C2373      C2933   1.474       .  S
C2374      C2377   1.378       .  D
C2374      C2990   1.486       .  S
C2375      C2378   1.373       .  D
C2375      C2957   1.481       .  S
C2376      C3077   1.487       .  S
C2377      C3101   1.495       .  S
C2378      C3125   1.486       .  S
O2379     Ni2385   1.921       .  S
O2379      C2400   1.268       .  A
O2380     Ni2403   1.910       .  S
O2380      C2389   1.269       .  A
O2381     Ni2385   1.902       .  S
O2381     Ni2403   1.905       .  S
O2381     Ni2397   1.911       .  S
O2381      H2404   0.966       .  S
C2382      O2399   1.278       .  A
C2382      O2391   1.277       .  A
C2382      C2909   1.480       .  S
O2383     Ni2402   1.928       .  S
O2383      C2389   1.272       .  A
O2384     Ni2402   1.911       .  S
O2384      C2386   1.270       .  A
Ni2385     O2388   1.920       .  S
Ni2385     O2390   1.900       .  S
C2386      O2396   1.272       .  A
C2386      C2861   1.483       .  S
O2387     Ni2403   1.922       .  S
O2387      C2393   1.279       .  A
O2388      C2393   1.278       .  A
C2389      C3062   1.487       .  S
O2390      C2392   1.266       .  A
O2391     Ni2402   1.918       .  S
C2392      O2398   1.269       .  A
C2392      C3038   1.478       .  S
C2393      C3014   1.490       .  S
H2394      O2395   0.966       .  S
O2395     Ni2403   1.916       .  S
O2395     Ni2397   1.904       .  S
O2395     Ni2402   1.901       .  S
O2396     Ni2397   1.928       .  S
Ni2397     O2401   1.916       .  S
Ni2397     O2399   1.928       .  S
O2398     Ni2403   1.923       .  S
C2400      O2401   1.269       .  A
C2400      C2885   1.484       .  S
C2405      H2406   1.111       .  S
C2405      C2410   1.530   1_655  S
C2407      H2408   1.111       .  S
C2407      C2413   1.539   1_655  S
C2409      C2412   1.370       .  D
C2410      C2413   1.371       .  D
C2411      C2414   1.378       .  D
C2411      C2870   1.486       .  S
C2414      C2837   1.482       .  S
C2415      H2416   1.110       .  S
C2415      C2421   1.544       .  S
C2415      C2420   1.540       .  S
C2415      C2419   1.544       .  S
C2417      H2418   1.111       .  S
C2417      C2423   1.530       .  S
C2417      C2422   1.532       .  S
C2417      C2424   1.529       .  S
C2419      C2422   1.374       .  D
C2419      C2822   1.488       .  S
C2420      C2423   1.373       .  D
C2420      C2846   1.485       .  S
C2421      C2424   1.374       .  D
C2421      C2789   1.483       .  S
C2422      C2750   1.483       .  S
C2423      C2726   1.482       .  S
C2424      C2765   1.482       .  S
C2425      H2426   1.111       .  S
C2425      C2431   1.545       .  S
C2425      C2430   1.535       .  S
C2425      C2429   1.538       .  S
C2427      H2428   1.111       .  S
C2427      C2433   1.536       .  S
C2427      C2432   1.534       .  S
C2427      C2434   1.532       .  S
C2429      C2432   1.375       .  D
C2429      C2654   1.491       .  S
C2430      C2433   1.374       .  D
C2430      C2669   1.476       .  S
C2431      C2434   1.376       .  D
C2431      C2702   1.483       .  S
C2432      C2621   1.481       .  S
C2433      C2606   1.489       .  S
C2434      C2573   1.493       .  S
C2435      H2436   1.110       .  S
C2435      C2441   1.540   1_545  S
C2437      H2438   1.112       .  S
C2437      C2444   1.528   1_545  S
C2439      C2442   1.386       .  D
C2439      C2678   1.502       .  S
C2440      C2443   1.368       .  D
C2441      C2444   1.367       .  D
C2442      C2501   1.488       .  S
O2445     Ni2451   1.939       .  S
O2445      C2466   1.275       .  A
O2446     Ni2469   1.908       .  S
O2446      C2455   1.268       .  A
O2447     Ni2451   1.904       .  S
O2447     Ni2469   1.907       .  S
O2447     Ni2463   1.913       .  S
O2447      H2470   0.966       .  S
C2448      O2465   1.276       .  A
C2448      O2457   1.277       .  A
C2448      C2942   1.472       .  S
O2449     Ni2468   1.919       .  S
O2449      C2455   1.268       .  A
O2450     Ni2468   1.905       .  S
O2450      C2452   1.267       .  A
Ni2451     O2454   1.926       .  S
Ni2451     O2456   1.907       .  S
C2452      O2462   1.270       .  A
C2452      C2966   1.477       .  S
O2453     Ni2469   1.920       .  S
O2453      C2459   1.277       .  A
O2454      C2459   1.278       .  A
C2455      C2525   1.481       .  S
O2456      C2458   1.270       .  A
O2457     Ni2468   1.920       .  S
C2458      O2464   1.270       .  A
C2458      C2510   1.476       .  S
C2459      C2549   1.483       .  S
H2460      O2461   0.966       .  S
O2461     Ni2469   1.910       .  S
O2461     Ni2463   1.897       .  S
O2461     Ni2468   1.900       .  S
O2462     Ni2463   1.922       .  S
Ni2463     O2467   1.902       .  S
Ni2463     O2465   1.915       .  S
O2464     Ni2469   1.922       .  S
C2466      O2467   1.266       .  A
C2466      C2981   1.487       .  S
O2471     Ni2477   1.918       .  S
O2471      C2492   1.270   1_554  A
O2472      C2481   1.271       .  A
O2473     Ni2477   1.914       .  S
O2473      H2496   0.968       .  S
C2474      O2491   1.271       .  A
C2474      O2483   1.268       .  A
C2474      C2717   1.486       .  S
O2475     Ni2494   1.914       .  S
O2475      C2481   1.269       .  A
O2476     Ni2494   1.899       .  S
Ni2477     O2480   1.929       .  S
Ni2477     O2482   1.896       .  S
C2478      O2488   1.279       .  A
C2478      C2774   1.485       .  S
O2479      C2485   1.269       .  A
O2480      C2485   1.272       .  A
C2481      C2582   1.491       .  S
O2483     Ni2494   1.921   1_556  S
C2484      O2490   1.276       .  A
C2484      C2630   1.478       .  S
C2485      C2597   1.485       .  S
H2486      O2487   0.964       .  S
O2487     Ni2494   1.912       .  S
C2492      O2493   1.268       .  A
C2492      C2741   1.483       .  S
C2497      C2498   1.405       .  A
C2497      C2502   1.402       .  A
C2497      H2507   1.083       .  S
C2498      C2503   1.485       .  S
C2498      C2499   1.410       .  A
C2499      C2500   1.397       .  A
C2499      O2504   1.374       .  S
C2500      C2501   1.402       .  A
C2500      H2505   1.082       .  S
C2501      C2502   1.410       .  A
C2502      O2506   1.371       .  S
C2503      C2508   1.410       .  A
C2503      C2512   1.406       .  A
O2504      H2520   0.992       .  S
O2506      H2517   0.991       .  S
C2508      C2509   1.395       .  A
C2508      O2513   1.372       .  S
C2509      C2510   1.402       .  A
C2509      H2514   1.084       .  S
C2510      C2511   1.410       .  A
C2511      C2512   1.403       .  A
C2511      O2515   1.371       .  S
C2512      H2516   1.083       .  S
O2513      H2518   0.992       .  S
O2515      H2519   0.992       .  S
C2521      C2522   1.397       .  A
C2521      C2526   1.396       .  A
C2521      H2531   1.084       .  S
C2522      C2527   1.468       .  S
C2522      C2523   1.403       .  A
C2523      C2524   1.399       .  A
C2523      O2528   1.372       .  S
C2524      C2525   1.408       .  A
C2524      H2529   1.083       .  S
C2525      C2526   1.416       .  A
C2526      O2530   1.372       .  S
C2527      C2532   1.406       .  A
C2527      C2536   1.400   1_655  A
O2528      H2544   0.992       .  S
O2530      H2541   0.992       .  S
C2532      C2533   1.396       .  A
C2532      O2537   1.372       .  S
C2533      C2534   1.398       .  A
C2533      H2538   1.083       .  S
C2535      O2539   1.374       .  S
O2537      H2542   0.992       .  S
O2539      H2543   0.992       .  S
C2545      C2546   1.403       .  A
C2545      C2550   1.403       .  A
C2545      H2555   1.084       .  S
C2546      C2551   1.481       .  S
C2546      C2547   1.407       .  A
C2547      C2548   1.399       .  A
C2547      O2552   1.373       .  S
C2548      C2549   1.405       .  A
C2548      H2553   1.084       .  S
C2549      C2550   1.413       .  A
C2550      O2554   1.372       .  S
C2551      C2556   1.409       .  A
C2551      C2560   1.404       .  A
O2552      H2568   0.992       .  S
O2554      H2565   0.992       .  S
C2556      C2557   1.398       .  A
C2556      O2561   1.371       .  S
C2557      C2558   1.399       .  A
C2557      H2562   1.082       .  S
C2558      C2559   1.405   1_655  A
C2559      C2560   1.402   1_455  A
C2560      H2564   1.083   1_655  S
O2561      H2566   0.992       .  S
O2563      H2567   0.991       .  S
C2569      C2570   1.402       .  A
C2569      C2574   1.404       .  A
C2569      H2579   1.084       .  S
C2570      C2575   1.481       .  S
C2570      C2571   1.406       .  A
C2571      C2572   1.401       .  A
C2571      O2576   1.372       .  S
C2572      C2573   1.405       .  A
C2572      H2577   1.084       .  S
C2573      C2574   1.412       .  A
C2574      O2578   1.371       .  S
C2575      C2580   1.402       .  A
C2575      C2584   1.405       .  A
O2576      H2592   0.992       .  S
O2578      H2589   0.991       .  S
C2580      C2581   1.396       .  A
C2580      O2585   1.372       .  S
C2581      C2582   1.410       .  A
C2581      H2586   1.083       .  S
C2582      C2583   1.413       .  A
C2583      C2584   1.409       .  A
C2584      H2588   1.083       .  S
O2585      H2590   0.992       .  S
O2587      H2591   0.992       .  S
C2593      C2594   1.407       .  A
C2593      C2598   1.404       .  A
C2593      H2603   1.083       .  S
C2594      C2599   1.489       .  S
C2594      C2595   1.408       .  A
C2595      C2596   1.395       .  A
C2595      O2600   1.372       .  S
C2596      C2597   1.406       .  A
C2596      H2601   1.084       .  S
C2597      C2598   1.411       .  A
C2598      O2602   1.371       .  S
C2599      C2604   1.409       .  A
C2599      C2608   1.405       .  A
O2600      H2616   0.992       .  S
O2602      H2613   0.992       .  S
C2604      C2605   1.404       .  A
C2604      O2609   1.372       .  S
C2605      C2606   1.406       .  A
C2605      H2610   1.080       .  S
C2606      C2607   1.407       .  A
C2607      C2608   1.396       .  A
C2607      O2611   1.371       .  S
C2608      H2612   1.083       .  S
O2609      H2614   0.992       .  S
O2611      H2615   0.991       .  S
C2617      C2618   1.401       .  A
C2617      C2622   1.396       .  A
C2617      H2627   1.084       .  S
C2618      C2623   1.474       .  S
C2618      C2619   1.407       .  A
C2619      C2620   1.399       .  A
C2619      O2624   1.372       .  S
C2620      C2621   1.404       .  A
C2620      H2625   1.084       .  S
C2621      C2622   1.408       .  A
C2622      O2626   1.372       .  S
C2623      C2628   1.406       .  A
C2623      C2632   1.400       .  A
O2624      H2640   0.992       .  S
O2626      H2637   0.992       .  S
C2628      C2629   1.400       .  A
C2628      O2633   1.372       .  S
C2629      C2630   1.407       .  A
C2629      H2634   1.084       .  S
C2630      C2631   1.411       .  A
C2631      C2632   1.397       .  A
O2633      H2638   0.992       .  S
O2635      H2639   0.992       .  S
C2641      C2642   1.406       .  A
C2641      C2646   1.404       .  A
C2641      H2651   1.083       .  S
C2642      C2647   1.494       .  S
C2642      C2643   1.413       .  A
C2644      H2649   1.079       .  S
C2645      C2646   1.407       .  A
C2647      C2652   1.411       .  A
C2647      C2656   1.408       .  A
O2648      H2664   0.992       .  S
O2650      H2661   0.992       .  S
C2652      C2653   1.402       .  A
C2652      O2657   1.372       .  S
C2653      C2654   1.406       .  A
C2653      H2658   1.083       .  S
C2654      C2655   1.406       .  A
C2655      C2656   1.401       .  A
C2655      O2659   1.371       .  S
C2656      H2660   1.083       .  S
O2657      H2662   0.992       .  S
O2659      H2663   0.992       .  S
C2665      C2666   1.408       .  A
C2665      C2670   1.398       .  A
C2665      H2675   1.084       .  S
C2666      C2671   1.489       .  S
C2666      C2667   1.411       .  A
C2667      C2668   1.403       .  A
C2667      O2672   1.372       .  S
C2668      C2669   1.402       .  A
C2668      H2673   1.084       .  S
C2669      C2670   1.401       .  A
C2670      O2674   1.372       .  S
C2671      C2676   1.409       .  A
C2671      C2680   1.402       .  A
O2672      H2688   0.992       .  S
O2674      H2685   0.992       .  S
C2676      C2677   1.401       .  A
C2676      O2681   1.371       .  S
C2677      C2678   1.410       .  A
C2677      H2682   1.082       .  S
C2678      C2679   1.411       .  A
C2679      C2680   1.401       .  A
C2679      O2683   1.371       .  S
C2680      H2684   1.084       .  S
O2681      H2686   0.992       .  S
O2683      H2687   0.992       .  S
C2689      C2690   1.406       .  A
C2689      C2694   1.400       .  A
C2689      H2699   1.083       .  S
C2690      C2695   1.489       .  S
C2690      C2691   1.412       .  A
C2692      H2697   1.083       .  S
C2693      C2694   1.404       .  A
C2694      O2698   1.370       .  S
C2695      C2700   1.412       .  A
C2695      C2704   1.405       .  A
O2696      H2712   0.992       .  S
O2698      H2709   0.992       .  S
C2700      C2701   1.401       .  A
C2700      O2705   1.372       .  S
C2701      C2702   1.401       .  A
C2701      H2706   1.083       .  S
C2702      C2703   1.408       .  A
C2703      C2704   1.398       .  A
C2703      O2707   1.371       .  S
C2704      H2708   1.083       .  S
O2705      H2710   0.992       .  S
O2707      H2711   0.991       .  S
C2713      C2714   1.396       .  A
C2713      C2718   1.392       .  A
C2713      H2723   1.084       .  S
C2714      C2719   1.478       .  S
C2714      C2715   1.409       .  A
C2715      C2716   1.406       .  A
C2715      O2720   1.371       .  S
C2716      C2717   1.408       .  A
C2716      H2721   1.083   1_565  S
C2717      C2718   1.416       .  A
C2718      O2722   1.372       .  S
C2719      C2724   1.409       .  A
C2719      C2728   1.401       .  A
O2720      H2736   0.992       .  S
O2722      H2733   0.992       .  S
C2724      C2725   1.398       .  A
C2724      O2729   1.372       .  S
C2725      C2726   1.403       .  A
C2725      H2730   1.084       .  S
C2726      C2727   1.408       .  A
C2727      C2728   1.400       .  A
C2727      O2731   1.371       .  S
C2728      H2732   1.084       .  S
O2729      H2734   0.992       .  S
O2731      H2735   0.992       .  S
C2737      C2738   1.404       .  A
C2737      C2742   1.404       .  A
C2737      H2747   1.084       .  S
C2738      C2743   1.477       .  S
C2738      C2739   1.404       .  A
C2739      C2740   1.396       .  A
C2739      O2744   1.373       .  S
C2740      C2741   1.407       .  A
C2740      H2745   1.084       .  S
C2741      C2742   1.412       .  A
C2742      O2746   1.372       .  S
C2743      C2748   1.408       .  A
C2743      C2752   1.401       .  A
O2744      H2760   0.992       .  S
O2746      H2757   0.992       .  S
C2748      C2749   1.397       .  A
C2748      O2753   1.372       .  S
C2749      C2750   1.401       .  A
C2749      H2754   1.084       .  S
C2750      C2751   1.410       .  A
C2751      C2752   1.403       .  A
C2751      O2755   1.372       .  S
C2752      H2756   1.084       .  S
O2753      H2758   0.992       .  S
O2755      H2759   0.992       .  S
C2761      C2762   1.407       .  A
C2761      C2766   1.397       .  A
C2761      H2771   1.084       .  S
C2762      C2767   1.491       .  S
C2762      C2763   1.412       .  A
C2763      C2764   1.406       .  A
C2763      O2768   1.373       .  S
C2764      C2765   1.403       .  A
C2764      H2769   1.084       .  S
C2765      C2766   1.404       .  A
C2766      O2770   1.372       .  S
C2767      C2772   1.411       .  A
C2767      C2776   1.405       .  A
O2768      H2784   0.992       .  S
O2770      H2781   0.991       .  S
C2772      C2773   1.404       .  A
C2772      O2777   1.371       .  S
C2773      C2774   1.407       .  A
C2774      C2775   1.410       .  A
C2775      C2776   1.399       .  A
C2775      O2779   1.372       .  S
C2776      H2780   1.084       .  S
O2779      H2783   0.992   1_556  S
C2785      C2786   1.402       .  A
C2785      C2790   1.398       .  A
C2785      H2795   1.084       .  S
C2786      C2791   1.482       .  S
C2786      C2787   1.409       .  A
C2787      C2788   1.402       .  A
C2787      O2792   1.372       .  S
C2788      C2789   1.402       .  A
C2788      H2793   1.084       .  S
C2789      C2790   1.409       .  A
C2790      O2794   1.371       .  S
C2791      C2796   1.409       .  A
C2791      C2800   1.404       .  A
O2792      H2808   0.992       .  S
O2794      H2805   0.992       .  S
C2797      H2802   1.084   1_455  S
C2798      C2799   1.406       .  A
C2799      C2800   1.401       .  A
C2800      H2804   1.084       .  S
O2801      H2806   0.992       .  S
O2803      H2807   0.992       .  S
C2809      C2810   1.404       .  A
C2809      C2814   1.401       .  A
C2809      H2819   1.083       .  S
C2810      C2815   1.487       .  S
C2810      C2811   1.411       .  A
C2811      C2812   1.402       .  A
C2811      O2816   1.371       .  S
C2812      C2813   1.401       .  A
C2813      C2814   1.410       .  A
C2814      O2818   1.372       .  S
C2815      C2820   1.408       .  A
C2815      C2824   1.406       .  A
O2816      H2832   0.992       .  S
O2818      H2829   0.991       .  S
C2820      C2821   1.401       .  A
C2820      O2825   1.372       .  S
C2821      C2822   1.405       .  A
C2821      H2826   1.084       .  S
C2822      C2823   1.407       .  A
C2823      C2824   1.404       .  A
C2823      O2827   1.371       .  S
C2824      H2828   1.083       .  S
O2825      H2830   0.992       .  S
O2827      H2831   0.991       .  S
C2833      C2834   1.403       .  A
C2833      C2838   1.400       .  A
C2833      H2843   1.084       .  S
C2834      C2839   1.480       .  S
C2834      C2835   1.408       .  A
C2835      C2836   1.400       .  A
C2835      O2840   1.372       .  S
C2836      C2837   1.403       .  A
C2836      H2841   1.084       .  S
C2837      C2838   1.409       .  A
C2838      O2842   1.372   1_565  S
C2839      C2844   1.406       .  A
C2839      C2848   1.405       .  A
O2840      H2856   0.992       .  S
O2842      H2853   0.992       .  S
C2844      C2845   1.398       .  A
C2844      O2849   1.371       .  S
C2845      C2846   1.405       .  A
C2845      H2850   1.084       .  S
C2846      C2847   1.406       .  A
C2847      C2848   1.403       .  A
C2847      O2851   1.371       .  S
C2848      H2852   1.084       .  S
O2849      H2854   0.992       .  S
O2851      H2855   0.992       .  S
C2857      C2858   1.403       .  A
C2857      C2862   1.397       .  A
C2857      H2867   1.084       .  S
C2858      C2863   1.486       .  S
C2858      C2859   1.411       .  A
C2859      C2860   1.404       .  A
C2859      O2864   1.372       .  S
C2860      C2861   1.406       .  A
C2860      H2865   1.083       .  S
C2861      C2862   1.411       .  A
C2862      O2866   1.372       .  S
C2863      C2868   1.409       .  A
C2863      C2872   1.406       .  A
O2864      H2880   0.992       .  S
O2866      H2877   0.992       .  S
C2868      C2869   1.396   1_565  A
C2868      O2873   1.372   1_565  S
C2869      C2870   1.402   1_545  A
C2870      C2871   1.410       .  A
C2871      C2872   1.403       .  A
C2871      O2875   1.371       .  S
C2872      H2876   1.083       .  S
O2875      H2879   0.991       .  S
C2881      C2882   1.397       .  A
C2881      C2886   1.396       .  A
C2881      H2891   1.084       .  S
C2882      C2887   1.473       .  S
C2882      C2883   1.405       .  A
C2883      C2884   1.403       .  A
C2883      O2888   1.371       .  S
C2884      C2885   1.407       .  A
C2884      H2889   1.083       .  S
C2885      C2886   1.416       .  A
C2886      O2890   1.372       .  S
C2887      C2892   1.404       .  A
C2887      C2896   1.402       .  A
O2888      H2904   0.992       .  S
O2890      H2901   0.992       .  S
C2893      H2898   1.083   1_455  S
C2894      C2895   1.407       .  A
C2895      C2896   1.400       .  A
C2895      O2899   1.372       .  S
C2896      H2900   1.084       .  S
O2897      H2902   0.992   1_455  S
O2899      H2903   0.992       .  S
C2905      C2906   1.401       .  A
C2905      C2910   1.396       .  A
C2905      H2915   1.084       .  S
C2906      C2911   1.481       .  S
C2906      C2907   1.408       .  A
C2907      C2908   1.405       .  A
C2907      O2912   1.372       .  S
C2908      C2909   1.406       .  A
C2908      H2913   1.084       .  S
C2909      C2910   1.411       .  A
C2910      O2914   1.372       .  S
C2911      C2916   1.409       .  A
C2911      C2920   1.402       .  A
O2912      H2928   0.992       .  S
O2914      H2925   0.992       .  S
C2916      C2917   1.400       .  A
C2917      C2918   1.404       .  A
C2918      C2919   1.409       .  A
C2919      C2920   1.400       .  A
C2919      O2923   1.371       .  S
C2920      H2924   1.084       .  S
O2921      H2926   0.992       .  S
C2929      C2930   1.404       .  A
C2929      C2934   1.400       .  A
C2929      H2939   1.083       .  S
C2930      C2935   1.481       .  S
C2930      C2931   1.410       .  A
C2931      C2932   1.397       .  A
C2931      O2936   1.373       .  S
C2932      C2933   1.397       .  A
C2932      H2937   1.081       .  S
C2933      C2934   1.405       .  A
C2934      O2938   1.372       .  S
C2935      C2940   1.409       .  A
C2935      C2944   1.403       .  A
O2936      H2952   0.992       .  S
O2938      H2949   0.992       .  S
C2940      C2941   1.401       .  A
C2940      O2945   1.372       .  S
C2941      C2942   1.404       .  A
C2941      H2946   1.084       .  S
C2942      C2943   1.408       .  A
C2943      C2944   1.396       .  A
C2943      O2947   1.372       .  S
C2944      H2948   1.083       .  S
O2945      H2950   0.992       .  S
O2947      H2951   0.992       .  S
C2953      C2954   1.401       .  A
C2953      C2958   1.398       .  A
C2953      H2963   1.084       .  S
C2954      C2959   1.472       .  S
C2954      C2955   1.406       .  A
C2955      C2956   1.399       .  A
C2956      C2957   1.404       .  A
C2956      H2961   1.083       .  S
C2957      C2958   1.407       .  A
C2958      O2962   1.371       .  S
O2960      H2976   0.992       .  S
O2962      H2973   0.991       .  S
C2964      C2965   1.398   1_455  A
C2965      C2966   1.405       .  A
C2965      H2970   1.084       .  S
C2966      C2967   1.411       .  A
C2967      C2968   1.401       .  A
C2967      O2971   1.372       .  S
C2968      H2972   1.084       .  S
O2969      H2974   0.992       .  S
O2971      H2975   0.992       .  S
C2977      C2982   1.403       .  A
C2977      H2987   1.084       .  S
C2978      C2983   1.475   1_545  S
C2979      C2980   1.399       .  A
C2980      C2981   1.406       .  A
C2980      H2985   1.083       .  S
C2981      C2982   1.415       .  A
C2982      O2986   1.371       .  S
C2983      C2988   1.405       .  A
C2983      C2992   1.402       .  A
O2984      H3000   0.992       .  S
O2986      H2997   0.992       .  S
C2988      C2989   1.395       .  A
C2989      C2990   1.401       .  A
C2989      H2994   1.080       .  S
C2990      C2991   1.411       .  A
C2991      C2992   1.405       .  A
C2991      O2995   1.372       .  S
C2992      H2996   1.083       .  S
O2993      H2998   0.992       .  S
O2995      H2999   0.992       .  S
C3001      C3002   1.403       .  A
C3001      C3006   1.397       .  A
C3001      H3011   1.084       .  S
C3002      C3007   1.481       .  S
C3002      C3003   1.410       .  A
C3003      C3004   1.402       .  A
C3003      O3008   1.373       .  S
C3004      C3005   1.403       .  A
C3004      H3009   1.084       .  S
C3005      C3006   1.405       .  A
C3006      O3010   1.371       .  S
C3007      C3012   1.405       .  A
C3007      C3016   1.404       .  A
O3008      H3024   0.992       .  S
O3010      H3021   0.992       .  S
C3012      C3013   1.396       .  A
C3012      O3017   1.372       .  S
C3013      C3014   1.410       .  A
C3013      H3018   1.083       .  S
C3014      C3015   1.413       .  A
C3015      C3016   1.403       .  A
C3015      O3019   1.371       .  S
C3016      H3020   1.084       .  S
O3017      H3022   0.992       .  S
O3019      H3023   0.992       .  S
C3025      C3026   1.406       .  A
C3025      C3030   1.402       .  A
C3025      H3035   1.083       .  S
C3026      C3027   1.411       .  A
C3027      C3028   1.397       .  A
C3027      O3032   1.372       .  S
C3028      C3029   1.400       .  A
C3028      H3033   1.082       .  S
C3029      C3030   1.406       .  A
C3030      O3034   1.372       .  S
C3031      C3036   1.408       .  A
O3032      H3048   0.992       .  S
O3034      H3045   0.992       .  S
C3036      C3037   1.402       .  A
C3036      O3041   1.372       .  S
C3037      C3038   1.406       .  A
C3037      H3042   1.084       .  S
C3038      C3039   1.409       .  A
C3039      O3043   1.372       .  S
C3040      H3044   1.084       .  S
O3041      H3046   0.992       .  S
O3043      H3047   0.992       .  S
C3049      C3050   1.401       .  A
C3049      C3054   1.401       .  A
C3049      H3059   1.084       .  S
C3050      C3055   1.477       .  S
C3050      C3051   1.408       .  A
C3051      C3052   1.401       .  A
C3051      O3056   1.371       .  S
C3052      C3053   1.400       .  A
C3052      H3057   1.084       .  S
C3053      C3054   1.407       .  A
C3054      O3058   1.373       .  S
C3055      C3064   1.401       .  A
O3056      H3072   0.992       .  S
O3058      H3069   0.992       .  S
C3060      C3061   1.401       .  A
C3060      O3065   1.371       .  S
C3061      C3062   1.409       .  A
C3061      H3066   1.083       .  S
C3062      C3063   1.414       .  A
C3063      O3067   1.372       .  S
C3064      H3068   1.084       .  S
O3065      H3070   0.992       .  S
O3067      H3071   0.992   1_565  S
C3073      C3074   1.403       .  A
C3073      C3078   1.402       .  A
C3073      H3083   1.084       .  S
C3074      C3079   1.484       .  S
C3074      C3075   1.408       .  A
C3075      C3076   1.403       .  A
C3075      O3080   1.371       .  S
C3076      C3077   1.405       .  A
C3076      H3081   1.084       .  S
C3077      C3078   1.406       .  A
C3078      O3082   1.371       .  S
C3079      C3084   1.407       .  A
C3079      C3088   1.404       .  A
O3080      H3096   0.992       .  S
O3082      H3093   0.991       .  S
C3084      C3085   1.402       .  A
C3084      O3089   1.371       .  S
C3085      C3086   1.406       .  A
C3085      H3090   1.084       .  S
C3086      C3087   1.407       .  A
C3087      C3088   1.403       .  A
C3087      O3091   1.370       .  S
C3088      H3092   1.084       .  S
O3089      H3094   0.992       .  S
O3091      H3095   0.992       .  S
C3097      C3098   1.404       .  A
C3097      C3102   1.397       .  A
C3098      C3099   1.415       .  A
C3099      C3100   1.403       .  A
C3099      O3104   1.371       .  S
C3100      C3101   1.402       .  A
C3100      H3105   1.080       .  S
C3101      C3102   1.413       .  A
C3102      O3106   1.371       .  S
C3103      C3108   1.413       .  A
C3103      C3112   1.407       .  A
O3104      H3120   0.992       .  S
O3106      H3117   0.992       .  S
C3108      C3109   1.400       .  A
C3108      O3113   1.371       .  S
C3109      C3110   1.399       .  A
C3109      H3114   1.083       .  S
C3110      C3111   1.404       .  A
C3111      C3112   1.400       .  A
C3111      O3115   1.371       .  S
C3112      H3116   1.083       .  S
O3113      H3118   0.992       .  S
O3115      H3119   0.991       .  S
C3121      C3122   1.402       .  A
C3121      C3126   1.401       .  A
C3121      H3131   1.084       .  S
C3122      C3123   1.408       .  A
C3123      C3124   1.402       .  A
C3123      O3128   1.372       .  S
C3124      C3125   1.401       .  A
C3124      H3129   1.081       .  S
C3125      C3126   1.411       .  A
C3126      O3130   1.372       .  S
C3127      C3132   1.408       .  A
C3127      C3136   1.403       .  A
O3128      H3144   0.992       .  S
O3130      H3141   0.991       .  S
C3132      C3133   1.398       .  A
C3132      O3137   1.371       .  S
C3133      C3134   1.401       .  A
C3133      H3138   1.084       .  S
C3134      C3135   1.409       .  A
C3135      C3136   1.400       .  A
C3135      O3139   1.371       .  S
O3137      H3142   0.992       .  S
O3139      H3143   0.991       .  S
