geometry optimzed in LAMMPS
_audit_creation_date              2020-12-01 
_audit_creation_method            'lammps2cif' 
_symmetry_space_group_name_H-M    'P1' 
_symmetry_Int_Tables_number       1 
_symmetry_cell_setting            triclinic 
loop_ 
_symmetry_equiv_pos_as_xyz 
  x,y,z 
_cell_length_a                    51.07777859 
_cell_length_b                    50.96691381244559 
_cell_length_c                    38.16622614052836 
_cell_angle_alpha                 90.02558798120263 
_cell_angle_beta                  90.02390929504205 
_cell_angle_gamma                 89.84985764052351 
loop_ 
_atom_site_label 
_atom_site_type_symbol 
_atom_site_fract_x 
_atom_site_fract_y 
_atom_site_fract_z 
_atom_site_charge 
Fe1        Fe  0.31557661  0.19247837  0.40927236     1.65800
Fe2        Fe  0.34829952  0.15996979  0.34379677     1.73200
Fe3        Fe  0.30065544  0.20524621  0.32344920     1.54400
O4          O  0.26544793  0.19974579  0.34933531    -0.81600
O5          O  0.36369114  0.18403200  0.30521981    -0.79900
O6          O  0.27533541  0.19132963  0.40494273    -0.84100
O7          O  0.31507480  0.23253569  0.40345349    -0.79000
O8          O  0.29311808  0.17196003  0.29427107    -0.80700
O9          O  0.37644550  0.17507869  0.37715114    -0.83500
C10         C  0.31026199  0.24863622  0.37899125     0.97300
C11         C  0.25872156  0.19533960  0.38077958     1.04700
O12         O  0.32147596  0.18590497  0.35874958    -1.12500
O13         O  0.33597928  0.13180236  0.37981472    -0.74900
O14         O  0.31411638  0.15318536  0.42143908    -0.78400
O15         O  0.30542540  0.24130187  0.34783059    -0.79100
C16         C  0.32238882  0.13211164  0.40772212     0.96200
O17         O  0.35521888  0.19536534  0.42033102    -0.77000
O18         O  0.32403968  0.14253211  0.30720730    -0.82200
C19         C  0.35524441  0.20325965  0.28724640     0.98800
C20         C  0.30414448  0.14986113  0.28972595     1.04700
O21         O  0.33281737  0.21329352  0.29243723    -0.77900
C22         C  0.37625567  0.18855053  0.40511208     1.03000
C23         C  0.25580595  0.05224787  0.00507770     0.80300
N24         N  0.24324474  0.07051422  0.98522789    -0.78000
C25         C  0.23701002  0.09446275  0.99851829     0.82700
N26         N  0.24429018  0.10038507  0.03171515    -0.78000
C27         C  0.25721639  0.08273841  0.05191804     0.82800
N28         N  0.26280146  0.05855177  0.03856461    -0.79700
C29         C  0.45262440  0.24277708  0.99979306     0.80300
N30         N  0.44797279  0.23930853  0.03463413    -0.78000
C31         C  0.42434249  0.24571674  0.04860662     0.82700
N32         N  0.40522887  0.25540022  0.02753193    -0.78000
C33         C  0.40966658  0.25935685  0.99286150     0.82800
N34         N  0.43345996  0.25317343  0.97914523    -0.79700
Fe35       Fe  0.30885421  0.81826372  0.90549842     1.65800
Fe36       Fe  0.34068270  0.84863975  0.83826019     1.73200
Fe37       Fe  0.29738445  0.79896772  0.82167064     1.54400
O38         O  0.30818256  0.76528438  0.84762421    -0.81600
O39         O  0.31688145  0.85990388  0.79697552    -0.79900
O40         O  0.30692931  0.77760174  0.90330333    -0.84100
O41         O  0.26887243  0.82098356  0.89921009    -0.79000
O42         O  0.32955587  0.79420283  0.78955276    -0.80700
O43         O  0.32382850  0.87832401  0.86759690    -0.83500
C44         C  0.25381246  0.81002258  0.87723493     0.97300
C45         C  0.30786660  0.75979931  0.87995042     1.04700
O46         O  0.31566602  0.82200292  0.85503749    -1.12500
O47         O  0.36793004  0.84019842  0.87713714    -0.74900
O48         O  0.34819518  0.81469938  0.91652591    -0.78400
O49         O  0.26217373  0.80006065  0.84881453    -0.79100
C50         C  0.36850098  0.82558574  0.90412663     0.96200
O51         O  0.30903058  0.85838977  0.91521838    -0.77000
O52         O  0.36028730  0.82257534  0.80601268    -0.82200
C53         C  0.29608269  0.85135209  0.78274385     0.98800
C54         C  0.35222663  0.80404111  0.78662932     1.04700
O55         O  0.28498983  0.83017723  0.79190103    -0.77900
C56         C  0.31358163  0.87913971  0.89779910     1.03000
C57         C  0.45069658  0.75831136  0.50462473     0.80300
N58         N  0.43310525  0.74566395  0.48385430    -0.78000
C59         C  0.41056708  0.73592794  0.49751107     0.82700
N60         N  0.40557406  0.73928921  0.53213991    -0.78000
C61         C  0.42298846  0.75155028  0.55343300     0.82800
N62         N  0.44549305  0.76111970  0.53940530    -0.79700
C63         C  0.25741525  0.95810699  0.50271173     0.80300
N64         N  0.25878572  0.95336592  0.53771589    -0.78000
C65         C  0.25189727  0.92971505  0.55094384     0.82700
N66         N  0.24366422  0.91065060  0.52890443    -0.78000
C67         C  0.24293973  0.91445943  0.49376866     0.82800
N68         N  0.24978131  0.93841056  0.48059879    -0.79700
Fe69       Fe  0.68634342  0.81310360  0.41373006     1.65800
Fe70       Fe  0.65436989  0.84113036  0.34418328     1.73200
Fe71       Fe  0.70200293  0.79481531  0.32985369     1.54400
O72         O  0.73669928  0.80247344  0.35555087    -0.81600
O73         O  0.63993254  0.81510052  0.30741471    -0.79900
O74         O  0.72683660  0.81517578  0.40986761    -0.84100
O75         O  0.68772231  0.77283342  0.41260722    -0.79000
O76         O  0.70954544  0.82628537  0.29656336    -0.80700
O77         O  0.62583671  0.82778022  0.37805260    -0.83500
C78         C  0.69234894  0.75505571  0.39020604     0.97300
C79         C  0.74341314  0.80964486  0.38611813     1.04700
O80         O  0.68097145  0.81634966  0.36253952    -1.12500
O81         O  0.66541688  0.87118037  0.37751281    -0.74900
O82         O  0.68633298  0.85302084  0.42226853    -0.78400
O83         O  0.69719207  0.76031513  0.35833046    -0.79100
C84         C  0.67784141  0.87300962  0.40620156     0.96200
O85         O  0.64647821  0.80978909  0.42344562    -0.77000
O86         O  0.67947249  0.85682136  0.30748165    -0.82200
C87         C  0.64840067  0.79460175  0.29225572     0.98800
C88         C  0.69919992  0.84855015  0.29044798     1.04700
O89         O  0.67022447  0.78422331  0.29988480    -0.77900
C90         C  0.62559531  0.81552493  0.40700047     1.03000
C91         C  0.74495855  0.96151673  0.01351426     0.80300
N92         N  0.75441521  0.94287002  0.99126823    -0.78000
C93         C  0.75882870  0.91804661  0.00281449     0.82700
N94         N  0.75334875  0.91180390  0.03655945    -0.78000
C95         C  0.74412607  0.93021147  0.05910407     0.82800
N96         N  0.73969657  0.95503451  0.04744579    -0.79700
C97         C  0.54066007  0.77276005  0.01275617     0.80300
N98         N  0.54416122  0.77155688  0.04806439    -0.78000
C99         C  0.56551176  0.75938270  0.06194497     0.82700
N100        N  0.58359841  0.74845733  0.04024566    -0.78000
C101        C  0.58041754  0.74966293  0.00495619     0.82800
N102        N  0.55915693  0.76201325  0.99146481    -0.79700
Fe103      Fe  0.68634067  0.18952861  0.90277123     1.65800
Fe104      Fe  0.65468642  0.15652598  0.83729716     1.73200
Fe105      Fe  0.70038814  0.20361250  0.81748348     1.54400
O106        O  0.69280814  0.23949070  0.84147523    -0.81600
O107        O  0.67818568  0.14204134  0.79737230    -0.79900
O108        O  0.68885825  0.22976234  0.89789647    -0.84100
O109        O  0.72645417  0.18585690  0.89822937    -0.79000
O110        O  0.66787872  0.20964812  0.78611252    -0.80700
O111        O  0.67043910  0.12805262  0.86984843    -0.83500
C112        C  0.74274600  0.19247048  0.87473186     0.97300
C113        C  0.69079929  0.24638714  0.87334080     1.04700
O114        O  0.68048990  0.18323334  0.85237727    -1.12500
O115        O  0.62684860  0.16780497  0.87441285    -0.74900
O116        O  0.64693267  0.19454236  0.91196424    -0.78400
O117        O  0.73561530  0.20012099  0.84444536    -0.79100
C118        C  0.62637744  0.18420088  0.89953693     0.96200
O119        O  0.68524029  0.15019580  0.91574160    -0.77000
O120        O  0.63660447  0.18163254  0.80224268    -0.82200
C121        C  0.69889123  0.14918053  0.78160746     0.98800
C122        C  0.64502892  0.20009400  0.78299378     1.04700
O123        O  0.71047179  0.17059184  0.78861723    -0.77900
C124        C  0.68057154  0.12870773  0.90017625     1.03000
C125        C  0.54566649  0.25842818  0.50378355     0.80300
N126        N  0.54987406  0.25470174  0.53869714    -0.78000
C127        C  0.57338418  0.26096810  0.55321890     0.82700
N128        N  0.59247368  0.27076491  0.53236294    -0.78000
C129        C  0.58869047  0.27449127  0.49757994     0.82800
N130        N  0.56524472  0.26796048  0.48325432    -0.79700
C131        C  0.74052493  0.04760710  0.49810123     0.80300
N132        N  0.73809202  0.05288112  0.53301828    -0.78000
C133        C  0.74777490  0.07558704  0.54665559     0.82700
N134        N  0.75947767  0.09308650  0.52492950    -0.78000
C135        C  0.76159239  0.08824421  0.49010144     0.82800
N136        N  0.75200582  0.06556234  0.47682559    -0.79700
Fe137      Fe  0.81528026  0.31458848  0.40764448     1.65800
Fe138      Fe  0.84698074  0.34464963  0.34045306     1.73200
Fe139      Fe  0.80015843  0.29829815  0.32327556     1.54400
O140        O  0.80225273  0.26386865  0.35279787    -0.81600
O141        O  0.82141888  0.36216234  0.30562041    -0.79900
O142        O  0.81886918  0.27468483  0.40470814    -0.84100
O143        O  0.77519775  0.31225293  0.40296615    -0.79000
O144        O  0.83320836  0.28650568  0.29606656    -0.80700
O145        O  0.83656632  0.37316085  0.37706761    -0.83500
C146        C  0.75840764  0.31071557  0.37858593     0.97300
C147        C  0.81015660  0.25783100  0.38338284     1.04700
O148        O  0.82070933  0.31921745  0.35699899    -1.12500
O149        O  0.87587379  0.32933143  0.37267866    -0.74900
O150        O  0.85460481  0.31559283  0.41979207    -0.78400
O151        O  0.76472213  0.30771197  0.34663120    -0.79100
C152        C  0.87572096  0.31968797  0.40337412     0.96200
O153        O  0.81076322  0.35404971  0.41606117    -0.77000
O154        O  0.86040411  0.32027126  0.30084424    -0.82200
C155        C  0.80402031  0.35280470  0.28539718     0.98800
C156        C  0.85384416  0.29863629  0.28692961     1.04700
O157        O  0.79504973  0.32966072  0.28883373    -0.77900
C158        C  0.82120187  0.37439226  0.40317830     1.03000
C159        C  0.95295355  0.25746221  0.99938080     0.80300
N160        N  0.94745783  0.26187790  0.03393236    -0.78000
C161        C  0.92350988  0.25608993  0.04743833     0.82700
N162        N  0.90482917  0.24610577  0.02611744    -0.78000
C163        C  0.90985105  0.24114939  0.99189641     0.82800
N164        N  0.93387756  0.24702193  0.97857092    -0.79700
C165        C  0.76225630  0.45417750  0.99842971     0.80300
N166        N  0.75046337  0.43543738  0.97842881    -0.78000
C167        C  0.74485768  0.41139466  0.99194347     0.82700
N168        N  0.75120625  0.40613308  0.02574199    -0.78000
C169        C  0.76235292  0.42466155  0.04642132     0.82800
N170        N  0.76795801  0.44860821  0.03259386    -0.79700
Fe171      Fe  0.18765801  0.31513125  0.90243473     1.65800
Fe172      Fe  0.15377695  0.34446114  0.83576027     1.73200
Fe173      Fe  0.20388769  0.30147963  0.81711964     1.54400
O174        O  0.23893721  0.31047679  0.84210700    -0.81600
O175        O  0.13933771  0.31797536  0.79959686    -0.79900
O176        O  0.22794424  0.31561043  0.89801145    -0.84100
O177        O  0.18746814  0.27491790  0.89800288    -0.79000
O178        O  0.20915389  0.33415607  0.78571139    -0.80700
O179        O  0.12618356  0.33030834  0.87069188    -0.83500
C180        C  0.19530324  0.25911483  0.87455918     0.97300
C181        C  0.24507246  0.31382310  0.87408606     1.04700
O182        O  0.18179291  0.32030316  0.85169616    -1.12500
O183        O  0.16569585  0.37400776  0.86943141    -0.74900
O184        O  0.18903146  0.35509338  0.91193299    -0.78400
O185        O  0.20214463  0.26625109  0.84403775    -0.79100
C186        C  0.18000814  0.37531932  0.89660664     0.96200
O187        O  0.14829787  0.31271183  0.91485298    -0.77000
O188        O  0.17681511  0.36188342  0.79809017    -0.82200
C189        C  0.14835423  0.29826335  0.78307822     0.98800
C190        C  0.19698183  0.35557699  0.78070611     1.04700
O191        O  0.17159568  0.28983051  0.78764159    -0.77900
C192        C  0.12690104  0.31870234  0.90003659     1.03000
C193        C  0.23975966  0.45876668  0.50018218     0.80300
N194        N  0.23736668  0.45423548  0.53532382    -0.78000
C195        C  0.24517342  0.43100092  0.54950821     0.82700
N196        N  0.25502491  0.41219325  0.52810909    -0.78000
C197        C  0.25758455  0.41622853  0.49322146     0.82800
N198        N  0.24991296  0.43955150  0.47943722    -0.79700
C199        C  0.04348470  0.24640939  0.50499705     0.80300
N200        N  0.04834219  0.24970489  0.53987096    -0.78000
C201        C  0.07187282  0.24283428  0.55373856     0.82700
N202        N  0.09072878  0.23343963  0.53215462    -0.78000
C203        C  0.08657155  0.23035864  0.49730992     0.82800
N204        N  0.06281230  0.23701058  0.48363507    -0.79700
Fe205      Fe  0.18469259  0.69296687  0.40115367     1.65800
Fe206      Fe  0.15605815  0.65975057  0.33337405     1.73200
Fe207      Fe  0.20323280  0.70627266  0.31707049     1.54400
O208        O  0.19818700  0.74179503  0.34308473    -0.81600
O209        O  0.18202573  0.64332244  0.29799334    -0.79900
O210        O  0.18146858  0.73314930  0.39566392    -0.84100
O211        O  0.22473530  0.69585359  0.39960043    -0.79000
O212        O  0.17145446  0.71515444  0.28555130    -0.80700
O213        O  0.16829883  0.63198600  0.36957525    -0.83500
C214        C  0.24260015  0.69849049  0.37690419     0.97300
C215        C  0.18959560  0.74925012  0.37276403     1.04700
O216        O  0.18131813  0.68636018  0.35042057    -1.12500
O217        O  0.12584089  0.67265647  0.36536705    -0.74900
O218        O  0.14494723  0.69194729  0.41059782    -0.78400
O219        O  0.23788502  0.69975660  0.34428195    -0.79100
C220        C  0.12457145  0.68440390  0.39458493     0.96200
O221        O  0.18924367  0.65352022  0.41198861    -0.77000
O222        O  0.14147570  0.68408717  0.29476405    -0.82200
C223        C  0.20167152  0.65141556  0.28089122     0.98800
C224        C  0.14964740  0.70427845  0.27869679     1.04700
O225        O  0.21157404  0.67389010  0.28633060    -0.77900
C226        C  0.18157198  0.63237328  0.39773918     1.03000
C227        C  0.04147513  0.74159648  0.99773054     0.80300
N228        N  0.06085841  0.75189274  0.97730378    -0.78000
C229        C  0.08440205  0.75866006  0.99153471     0.82700
N230        N  0.08802921  0.75517686  0.02648493    -0.78000
C231        C  0.06905472  0.74491802  0.04699435     0.82800
N232        N  0.04593623  0.73772552  0.03250947    -0.79700
C233        C  0.24050609  0.54824078  0.99652943     0.80300
N234        N  0.23540665  0.55478353  0.03048551    -0.78000
C235        C  0.24304387  0.57847322  0.04329046     0.82700
N236        N  0.25592344  0.59539921  0.02207873    -0.78000
C237        C  0.26126258  0.58899395  0.98839315     0.82800
N238        N  0.25333717  0.56548631  0.97546859    -0.79700
Fe239      Fe  0.80555365  0.69395321  0.90792756     1.65800
Fe240      Fe  0.83364033  0.66291745  0.83779198     1.73200
Fe241      Fe  0.78682301  0.71045747  0.82465992     1.54400
O242        O  0.75234477  0.70477682  0.85252602    -0.81600
O243        O  0.84807092  0.68827926  0.80005318    -0.79900
O244        O  0.76544713  0.69710984  0.90704439    -0.84100
O245        O  0.80887363  0.73430530  0.90466605    -0.79000
O246        O  0.77696816  0.67891724  0.79340156    -0.80700
O247        O  0.86417455  0.67492693  0.87001357    -0.83500
C248        C  0.80204460  0.75119280  0.88193841     0.97300
C249        C  0.74749988  0.70144697  0.88483543     1.04700
O250        O  0.80864096  0.68911886  0.85672499    -1.12500
O251        O  0.82191787  0.63402708  0.87284250    -0.74900
O252        O  0.80099921  0.65413432  0.91654511    -0.78400
O253        O  0.79373841  0.74479175  0.85175134    -0.79100
C254        C  0.80858293  0.63344302  0.90097373     0.96200
O255        O  0.84542732  0.69239716  0.91693602    -0.77000
O256        O  0.80679562  0.64775265  0.80237320    -0.82200
C257        C  0.83991301  0.70888702  0.78472210     0.98800
C258        C  0.78659245  0.65650376  0.78675292     1.04700
O259        O  0.81814063  0.71947399  0.79237951    -0.77900
C260        C  0.86568523  0.68557489  0.90000598     1.03000
C261        C  0.75607306  0.54356255  0.51072049     0.80300
N262        N  0.75790463  0.54767416  0.54592868    -0.78000
C263        C  0.74821537  0.57005690  0.56050474     0.82700
N264        N  0.73670881  0.58836468  0.53959914    -0.78000
C265        C  0.73536882  0.58472279  0.50442465     0.82800
N266        N  0.74520551  0.56241851  0.49016310    -0.79700
C267        C  0.95155394  0.73693011  0.50469679     0.80300
N268        N  0.93228809  0.74786796  0.48460978    -0.78000
C269        C  0.90925536  0.75553170  0.49940393     0.82700
N270        N  0.90597895  0.75300107  0.53445480    -0.78000
C271        C  0.92493826  0.74240517  0.55478145     0.82800
N272        N  0.94769108  0.73415352  0.53988731    -0.79700
C273        C  0.85616600  0.72004246  0.75578054    -0.11900
C274        C  0.84549650  0.73585736  0.72861993     0.03600
C275        C  0.86050997  0.74150505  0.69882877    -0.12400
C276        C  0.88615337  0.73205871  0.69541380     0.18400
C277        C  0.89765165  0.71857264  0.72361913    -0.09500
C278        C  0.88268823  0.71252321  0.75326881    -0.02400
H279        H  0.85166721  0.75228014  0.67737199     0.05000
C280        C  0.89936065  0.73400031  0.66091793     0.20400
H281        H  0.89170167  0.70113096  0.77400209     0.10100
C282        C  0.90846700  0.75834521  0.64894106    -0.15800
C283        C  0.91849161  0.76099559  0.61492481     0.03100
C284        C  0.91969798  0.73909030  0.59247399    -0.11100
C285        C  0.91122140  0.71462676  0.60473028    -0.01200
C286        C  0.90091658  0.71199891  0.63856050    -0.06300
H287        H  0.90710432  0.77543259  0.66573302     0.06100
H288        H  0.91126514  0.69784632  0.58728812     0.09500
Br289      Br  0.93351123  0.70737667  0.72210301    -0.06000
Br290      Br  0.81016078  0.74893289  0.72840974    -0.03000
Br291      Br  0.92947164  0.79503815  0.59948762    -0.00100
Br292      Br  0.88694413  0.67854697  0.65201618    -0.04500
C293        C  0.75022112  0.57512897  0.59867497    -0.11900
C294        C  0.77378565  0.57176211  0.61759190     0.03600
C295        C  0.77572013  0.58126203  0.65199827    -0.12400
C296        C  0.75432592  0.59351323  0.66845159     0.18400
C297        C  0.73020598  0.59467898  0.65060871    -0.09500
C298        C  0.72844250  0.58593297  0.61594421    -0.02400
H299        H  0.79444031  0.58032708  0.66530418     0.05000
C300        C  0.75875668  0.60857677  0.70130140     0.20400
H301        H  0.71001675  0.58804259  0.60213877     0.10100
C302        C  0.75532832  0.63587162  0.70045862    -0.15800
C303        C  0.76270851  0.65169048  0.72869400     0.03100
C304        C  0.77456051  0.64025668  0.75861813    -0.11100
C305        C  0.77688932  0.61273552  0.76004579    -0.01200
C306        C  0.76882055  0.59692438  0.73195042    -0.06300
H307        H  0.74774751  0.64512078  0.67695506     0.06100
H308        H  0.78533338  0.60345843  0.78297391     0.09500
Br309      Br  0.69915954  0.60821482  0.67243722    -0.06000
Br310      Br  0.80472970  0.55682640  0.59708507    -0.03000
Br311      Br  0.75786521  0.68883700  0.72266443    -0.00100
Br312      Br  0.77143721  0.55956357  0.73679530    -0.04500
C313        C  0.89187119  0.69158515  0.91558560    -0.07900
C314        C  0.91508184  0.67790693  0.90649662     0.03600
C315        C  0.93928325  0.68587771  0.92034459    -0.12400
C316        C  0.94101883  0.70721404  0.94348507     0.18400
C317        C  0.91791834  0.72026482  0.95353671    -0.09500
C318        C  0.89376699  0.71237517  0.93980088    -0.02400
H319        H  0.95691608  0.67537812  0.91296389     0.05000
C320        C  0.96702080  0.71565897  0.95682449     0.20400
H321        H  0.87636917  0.72294322  0.94778342     0.10100
C322        C  0.97781236  0.73943478  0.94518417    -0.15800
C323        C  0.00204827  0.74828037  0.95786005     0.03100
C324        C  0.01613281  0.73303951  0.98241198    -0.11100
C325        C  0.00517219  0.70929972  0.99404680    -0.01200
C326        C  0.98092972  0.70058991  0.98151451    -0.06300
H327        H  0.96708960  0.75137723  0.92659872     0.06100
H328        H  0.01548943  0.69744264  0.01313407     0.09500
Br329      Br  0.91833163  0.74874137  0.98645313    -0.06000
Br330      Br  0.91518008  0.64741840  0.87695054    -0.03000
Br331      Br  0.01355297  0.78233075  0.94310852    -0.00100
Br332      Br  0.96707039  0.66855107  0.00010064    -0.04500
C333        C  0.07462804  0.74016395  0.08424456    -0.11900
C334        C  0.07967340  0.76113598  0.10727694     0.03600
C335        C  0.08921290  0.75610062  0.14098397    -0.12400
C336        C  0.09413127  0.73031013  0.15195458     0.18400
C337        C  0.08828144  0.70928613  0.12933744    -0.09500
C338        C  0.07836718  0.71431592  0.09579606    -0.02400
H339        H  0.09374567  0.77236068  0.15821494     0.05000
C340        C  0.10786100  0.72582913  0.18547070     0.20400
H341        H  0.07493680  0.69809601  0.07804234     0.10100
C342        C  0.09372341  0.71867044  0.21544994    -0.15800
C343        C  0.10671038  0.71275459  0.24687276     0.03100
C344        C  0.13433839  0.71413920  0.24848138    -0.11100
C345        C  0.14820068  0.72238715  0.21868165    -0.01200
C346        C  0.13525378  0.72796513  0.18735153    -0.06300
H347        H  0.07257691  0.71728156  0.21421070     0.06100
H348        H  0.16939648  0.72321629  0.21915550     0.09500
Br349      Br  0.09559078  0.67362227  0.14216766    -0.06000
Br350      Br  0.07432926  0.79692899  0.09345600    -0.03000
Br351      Br  0.08571109  0.70352073  0.28671535    -0.00100
Br352      Br  0.15595607  0.73675546  0.14709383    -0.04500
C353        C  0.21238471  0.63523562  0.25141885    -0.11900
C354        C  0.20119469  0.61105578  0.24057976     0.03600
C355        C  0.20809122  0.60013482  0.20811804    -0.12400
C356        C  0.22662783  0.61218791  0.18640850     0.18400
C357        C  0.23963195  0.63471927  0.19861707    -0.09500
C358        C  0.23245536  0.64601420  0.23060001    -0.02400
H359        H  0.19825527  0.58253500  0.19922265     0.05000
C360        C  0.23031759  0.60261062  0.14996906     0.20400
H361        H  0.24204851  0.66402428  0.23840693     0.10100
C362        C  0.22343448  0.61928318  0.12217671    -0.15800
C363        C  0.22673077  0.61145268  0.08735182     0.03100
C364        C  0.23698936  0.58635547  0.07968902    -0.11100
C365        C  0.24288125  0.56923386  0.10742113    -0.01200
C366        C  0.23973419  0.57720601  0.14236845    -0.06300
H367        H  0.21542285  0.63853837  0.12764979     0.06100
H368        H  0.25079352  0.54993716  0.10191706     0.09500
Br369      Br  0.26711203  0.65110600  0.17227828    -0.06000
Br370      Br  0.17615892  0.59169033  0.26776309    -0.03000
Br371      Br  0.21563012  0.63546019  0.05143840    -0.00100
Br372      Br  0.24991063  0.55326749  0.17867375    -0.04500
C373        C  0.97655965  0.72831348  0.48821367    -0.11900
C374        C  0.98965084  0.70504405  0.49844693     0.03600
C375        C  0.01348199  0.69806330  0.48269576    -0.12400
C376        C  0.02457066  0.71365031  0.45636951     0.18400
C377        C  0.01111579  0.73629052  0.44515107    -0.09500
C378        C  0.98744100  0.74350365  0.46112802    -0.02400
H379        H  0.02337275  0.68026033  0.49089579     0.05000
C380        C  0.05010755  0.70590888  0.44085616     0.20400
H381        H  0.97755489  0.76116919  0.45241690     0.10100
C382        C  0.05139367  0.68463977  0.41755929    -0.15800
C383        C  0.07525060  0.67691682  0.40234715     0.03100
C384        C  0.09856683  0.69068025  0.41047780    -0.11100
C385        C  0.09707477  0.71157854  0.43457191    -0.01200
C386        C  0.07328979  0.71919962  0.44962458    -0.06300
H387        H  0.03369620  0.67397636  0.41118231     0.06100
H388        H  0.11453498  0.72231691  0.44169279     0.09500
Br389      Br  0.02400063  0.75741581  0.40732607    -0.06000
Br390      Br  0.97506047  0.68080419  0.53156347    -0.03000
Br391      Br  0.07450279  0.64665263  0.37236894    -0.00100
Br392      Br  0.07358608  0.74759394  0.48264941    -0.04500
C393        C  0.23104904  0.48439342  0.48490572    -0.11900
C394        C  0.22793931  0.48872432  0.44829404     0.03600
C395        C  0.22009893  0.51337378  0.43596495    -0.12400
C396        C  0.21492334  0.53404819  0.45900941     0.18400
C397        C  0.21741254  0.52990494  0.49524233    -0.09500
C398        C  0.22545303  0.50538641  0.50784124    -0.02400
H399        H  0.21781865  0.51643900  0.40802739     0.05000
C400        C  0.20632192  0.55954101  0.44448011     0.20400
H401        H  0.22731153  0.50288184  0.53587822     0.10100
C402        C  0.18079192  0.56202606  0.43137344    -0.15800
C403        C  0.17226613  0.58547925  0.41597783     0.03100
C404        C  0.18934566  0.60718835  0.41413917    -0.11100
C405        C  0.21493056  0.60458331  0.42737634    -0.01200
C406        C  0.22361584  0.58087450  0.44183336    -0.06300
H407        H  0.16749819  0.54553107  0.43290440     0.06100
H408        H  0.22852510  0.62080271  0.42540203     0.09500
Br409      Br  0.20944769  0.55698861  0.52851391    -0.06000
Br410      Br  0.23243595  0.46239178  0.41275494    -0.03000
Br411      Br  0.13692973  0.58679562  0.39891081    -0.00100
Br412      Br  0.25965502  0.57789735  0.45553622    -0.04500
C413        C  0.07888476  0.24888305  0.59072471    -0.11900
C414        C  0.06103307  0.24742460  0.61900102     0.03600
C415        C  0.06949334  0.25331305  0.65322806    -0.12400
C416        C  0.09551099  0.26079738  0.65976455     0.18400
C417        C  0.11311943  0.26245209  0.63157370    -0.09500
C418        C  0.10483897  0.25642491  0.59771248    -0.02400
H419        H  0.05576384  0.25209045  0.67478202     0.05000
C420        C  0.10433980  0.26799726  0.69552743     0.20400
H421        H  0.11884953  0.25815721  0.57653204     0.10100
C422        C  0.12168910  0.25136031  0.71351234    -0.15800
C423        C  0.13510992  0.26003163  0.74344939     0.03100
C424        C  0.13147416  0.28602592  0.75565866    -0.11100
C425        C  0.11241920  0.30176926  0.73908797    -0.01200
C426        C  0.09895214  0.29297820  0.70939116    -0.06300
H427        H  0.12566053  0.23191812  0.70329348     0.06100
H428        H  0.10893056  0.32164594  0.74802672     0.09500
Br429      Br  0.14858529  0.27399602  0.63777315    -0.06000
Br430      Br  0.02541327  0.23643195  0.61292603    -0.03000
Br431      Br  0.15781873  0.23531633  0.76634577    -0.00100
Br432      Br  0.07504517  0.31665269  0.68683425    -0.04500
C433        C  0.24087353  0.42449325  0.58711230    -0.11900
C434        C  0.24066933  0.44330863  0.61445110     0.03600
C435        C  0.23611580  0.43529861  0.64917455    -0.12400
C436        C  0.23187119  0.40879132  0.65720398     0.18400
C437        C  0.23220454  0.39011822  0.63014754    -0.09500
C438        C  0.23679984  0.39796006  0.59574096    -0.02400
H439        H  0.23564742  0.44979568  0.66992695     0.05000
C440        C  0.22450569  0.40065079  0.69301043     0.20400
H441        H  0.23650924  0.38309221  0.57546137     0.10100
C442        C  0.19800405  0.40151960  0.70218397    -0.15800
C443        C  0.18873353  0.38804943  0.73155838     0.03100
C444        C  0.20632111  0.37342177  0.75264738    -0.11100
C445        C  0.23320208  0.37414306  0.74463571    -0.01200
C446        C  0.24234754  0.38765897  0.71514293    -0.06300
H447        H  0.18415532  0.41120550  0.68495877     0.06100
H448        H  0.24706363  0.36340747  0.76067877     0.09500
Br449      Br  0.22504737  0.35368647  0.63868372    -0.06000
Br450      Br  0.24728519  0.47988144  0.60669350    -0.03000
Br451      Br  0.15144221  0.38787138  0.73816300    -0.00100
Br452      Br  0.27906683  0.38657926  0.70477802    -0.04500
C453        C  0.18705822  0.40148397  0.91069701    -0.11900
C454        C  0.19497833  0.42223341  0.88852114     0.03600
C455        C  0.20322956  0.44608521  0.90299398    -0.12400
C456        C  0.20380502  0.44982452  0.93937701     0.18400
C457        C  0.19554789  0.42935266  0.96150141    -0.09500
C458        C  0.18749269  0.40539091  0.94713714    -0.02400
H459        H  0.20965689  0.46170668  0.88577417     0.05000
C460        C  0.21345587  0.47503945  0.95378183     0.20400
H461        H  0.18162812  0.38967768  0.96455339     0.10100
C462        C  0.19557879  0.49283518  0.96850708    -0.15800
C463        C  0.20408861  0.51676253  0.98248434     0.03100
C464        C  0.23091503  0.52318243  0.98196709    -0.11100
C465        C  0.24873934  0.50561924  0.96659645    -0.01200
C466        C  0.24022504  0.48164063  0.95270733    -0.06300
H467        H  0.17491703  0.48815853  0.96887035     0.06100
H468        H  0.26936909  0.51041174  0.96583263     0.09500
Br469      Br  0.19587737  0.43295405  0.01151987    -0.06000
Br470      Br  0.19709934  0.41861757  0.83850410    -0.03000
Br471      Br  0.17813085  0.54075516  0.99981823    -0.00100
Br472      Br  0.26589751  0.45816697  0.93346702    -0.04500
C473        C  0.80175017  0.60751491  0.91623255    -0.11900
C474        C  0.77682578  0.60241865  0.93085573     0.03600
C475        C  0.77123280  0.57760297  0.94482967    -0.12400
C476        C  0.79002511  0.55747802  0.94453022     0.18400
C477        C  0.81482246  0.56247828  0.92988698    -0.09500
C478        C  0.82044622  0.58722399  0.91576160    -0.02400
H479        H  0.75196975  0.57383760  0.95550798     0.05000
C480        C  0.78305653  0.53116903  0.95845943     0.20400
H481        H  0.83966333  0.59072582  0.90476593     0.10100
C482        C  0.77879733  0.51041957  0.93506129    -0.15800
C483        C  0.77199419  0.48530919  0.94703957     0.03100
C484        C  0.76910691  0.48051058  0.98351982    -0.11100
C485        C  0.77350073  0.50157367  0.00678049    -0.01200
C486        C  0.78036587  0.52657716  0.99459163    -0.06300
H487        H  0.78094066  0.51378296  0.90720133     0.06100
H488        H  0.77158019  0.49870460  0.03473496     0.09500
Br489      Br  0.84186788  0.53630962  0.92954294    -0.06000
Br490      Br  0.74893389  0.62778258  0.93018796    -0.03000
Br491      Br  0.76844240  0.45878184  0.91156747    -0.00100
Br492      Br  0.78668879  0.55371218  0.02837289    -0.04500
C493        C  0.97920017  0.26538211  0.98480383    -0.11900
C494        C  0.98686430  0.26155344  0.94927834     0.03600
C495        C  0.01133994  0.27045626  0.93754826    -0.12400
C496        C  0.02880550  0.28309814  0.96016501     0.18400
C497        C  0.02163918  0.28672386  0.99534392    -0.09500
C498        C  0.99722821  0.27795801  0.00733117    -0.02400
H499        H  0.01682800  0.26752007  0.91039931     0.05000
C500        C  0.05426247  0.29261517  0.94634837     0.20400
H501        H  0.99237695  0.28131828  0.03456489     0.10100
C502        C  0.05550587  0.31718677  0.92988930    -0.15800
C503        C  0.07903169  0.32641914  0.91549626     0.03100
C504        C  0.10191801  0.31079298  0.91708639    -0.11100
C505        C  0.10068880  0.28645364  0.93442591    -0.01200
C506        C  0.07716885  0.27732178  0.94885567    -0.06300
H507        H  0.03806358  0.32928418  0.92832385     0.06100
H508        H  0.11796979  0.27412679  0.93601280     0.09500
Br509      Br  0.04457805  0.30387845  0.02784070    -0.06000
Br510      Br  0.96579335  0.24454137  0.91440474    -0.03000
Br511      Br  0.07900990  0.36110533  0.89591739    -0.00100
Br512      Br  0.07702180  0.24359816  0.97112841    -0.04500
C513        C  0.86948569  0.28815236  0.25684563    -0.11900
C514        C  0.89262771  0.30040866  0.24431318     0.03600
C515        C  0.90289785  0.29342385  0.21151407    -0.12400
C516        C  0.89098702  0.27408860  0.19091399     0.18400
C517        C  0.86976361  0.25997519  0.20484906    -0.09500
C518        C  0.85915532  0.26711422  0.23728222    -0.02400
H519        H  0.91978259  0.30381686  0.20145013     0.05000
C520        C  0.89982890  0.27014293  0.15422888     0.20400
H521        H  0.84196912  0.25675988  0.24638965     0.10100
C522        C  0.92465650  0.25941357  0.14736174    -0.15800
C523        C  0.93315347  0.25516275  0.11280295     0.03100
C524        C  0.91670626  0.26188117  0.08442846    -0.11100
C525        C  0.89212855  0.27313441  0.09149366    -0.01200
C526        C  0.88374525  0.27748854  0.12586184    -0.06300
H527        H  0.93723147  0.25381044  0.16898456     0.06100
H528        H  0.87931732  0.27865017  0.07006646     0.09500
Br529      Br  0.85414631  0.23119412  0.18009664    -0.06000
Br530      Br  0.91140894  0.32696198  0.26972728    -0.03000
Br531      Br  0.96634925  0.23823365  0.10604609    -0.00100
Br532      Br  0.85035978  0.29412433  0.13262828    -0.04500
C533        C  0.79590066  0.36862741  0.25452055    -0.11900
C534        C  0.77021008  0.36823724  0.24082065     0.03600
C535        C  0.76493729  0.37979659  0.20812876    -0.12400
C536        C  0.78489839  0.39199790  0.18882349     0.18400
C537        C  0.81008438  0.39382413  0.20348222    -0.09500
C538        C  0.81538669  0.38227637  0.23599161    -0.02400
H539        H  0.74534834  0.37871106  0.19733890     0.05000
C540        C  0.77974456  0.40091833  0.15244479     0.20400
H541        H  0.83522741  0.38288407  0.24599285     0.10100
C542        C  0.76915356  0.42592084  0.14618030    -0.15800
C543        C  0.76406650  0.43454508  0.11184392     0.03100
C544        C  0.76928836  0.41781065  0.08311273    -0.11100
C545        C  0.78012606  0.39291565  0.08964316    -0.01200
C546        C  0.78553500  0.38453804  0.12377861    -0.06300
H547        H  0.76470164  0.43869199  0.16808178     0.06100
H548        H  0.78442089  0.37983110  0.06800368     0.09500
Br549      Br  0.83812732  0.41091423  0.17919298    -0.06000
Br550      Br  0.74158679  0.35299071  0.26613252    -0.03000
Br551      Br  0.74849104  0.46856165  0.10609528    -0.00100
Br552      Br  0.80066476  0.35038977  0.13004057    -0.04500
C553        C  0.81462296  0.40024130  0.41950822    -0.11900
C554        C  0.82088869  0.42479659  0.40411400     0.03600
C555        C  0.81233531  0.44813562  0.41993998    -0.12400
C556        C  0.79778159  0.44774003  0.45102874     0.18400
C557        C  0.79183677  0.42356938  0.46669030    -0.09500
C558        C  0.80033788  0.40025148  0.45115395    -0.02400
H559        H  0.81684207  0.46677586  0.40771529     0.05000
C560        C  0.78785777  0.47262385  0.46592376     0.20400
H561        H  0.79527855  0.38196602  0.46385037     0.10100
C562        C  0.76606187  0.48463979  0.45045706    -0.15800
C563        C  0.75526466  0.50757956  0.46458364     0.03100
C564        C  0.76658397  0.51912138  0.49477444    -0.11100
C565        C  0.78856675  0.50697964  0.51004880    -0.01200
C566        C  0.79922879  0.48399073  0.49583609    -0.06300
H567        H  0.75704546  0.47576070  0.42765868     0.06100
H568        H  0.79769099  0.51550662  0.53296432     0.09500
Br569      Br  0.77114043  0.42137205  0.50855718    -0.06000
Br570      Br  0.84021558  0.42854074  0.36122477    -0.03000
Br571      Br  0.72399396  0.52066941  0.44258495    -0.00100
Br572      Br  0.82946462  0.46885933  0.51785270    -0.04500
C573        C  0.90102253  0.31169045  0.41987647    -0.11900
C574        C  0.90350179  0.30562284  0.45607428     0.03600
C575        C  0.92727657  0.29597473  0.46919631    -0.12400
C576        C  0.94883993  0.29192288  0.44715785     0.18400
C577        C  0.94662567  0.29820576  0.41141052    -0.09500
C578        C  0.92306790  0.30819487  0.39818750    -0.02400
H579        H  0.92885085  0.29116902  0.49676457     0.05000
C580        C  0.97318177  0.28040292  0.46180876     0.20400
H581        H  0.92184439  0.31246379  0.37044386     0.10100
C582        C  0.98039893  0.25473105  0.45252862    -0.15800
C583        C  0.00311656  0.24311802  0.46622652     0.03100
C584        C  0.01895635  0.25719943  0.48996242    -0.11100
C585        C  0.01143645  0.28275380  0.49952756    -0.01200
C586        C  0.98893527  0.29443241  0.48552882    -0.06300
H587        H  0.96817009  0.24362467  0.43472280     0.06100
H588        H  0.02346723  0.29395774  0.51747976     0.09500
Br589      Br  0.97522005  0.29329845  0.37949645    -0.06000
Br590      Br  0.87572731  0.30980927  0.48965827    -0.03000
Br591      Br  0.01040463  0.20754631  0.45331909    -0.00100
Br592      Br  0.98117647  0.32998999  0.49841232    -0.04500
C593        C  0.80797192  0.23035526  0.39568146    -0.11900
C594        C  0.80082641  0.22479322  0.43073408     0.03600
C595        C  0.79746224  0.19891853  0.44144354    -0.12400
C596        C  0.80096955  0.17800756  0.41814883     0.18400
C597        C  0.80814521  0.18327934  0.38322538    -0.09500
C598        C  0.81155557  0.20934556  0.37220769    -0.02400
H599        H  0.79122296  0.19507120  0.46811271     0.05000
C600        C  0.79469863  0.15136935  0.43100881     0.20400
H601        H  0.81695878  0.21320645  0.34524209     0.10100
C602        C  0.77198152  0.13893507  0.41875855    -0.15800
C603        C  0.76156413  0.11726019  0.43642888     0.03100
C604        C  0.77385635  0.10798284  0.46717939    -0.11100
C605        C  0.79742091  0.11944012  0.47807372    -0.01200
C606        C  0.80800198  0.14076942  0.46009441    -0.06300
H607        H  0.76136181  0.14717444  0.39674942     0.06100
H608        H  0.80728773  0.11220667  0.50130728     0.09500
Br609      Br  0.81378342  0.15554861  0.35010153    -0.06000
Br610      Br  0.79272419  0.25135710  0.46492536    -0.03000
Br611      Br  0.72897128  0.10331805  0.41976255    -0.00100
Br612      Br  0.84012000  0.15551766  0.47708515    -0.04500
C613        C  0.73045491  0.31084177  0.38864496    -0.11900
C614        C  0.72112433  0.32672862  0.41632809     0.03600
C615        C  0.69602271  0.32270376  0.42978425    -0.12400
C616        C  0.68005179  0.30270215  0.41661753     0.18400
C617        C  0.68869915  0.28770652  0.38789562    -0.09500
C618        C  0.71363576  0.29207690  0.37380817    -0.02400
H619        H  0.68945168  0.33428366  0.45192709     0.05000
C620        C  0.65637479  0.29541074  0.43647131     0.20400
H621        H  0.72057240  0.27949189  0.35288195     0.10100
C622        C  0.63147117  0.30315307  0.42484939    -0.15800
C623        C  0.60897387  0.29682787  0.44420478     0.03100
C624        C  0.61135497  0.28226932  0.47560654    -0.11100
C625        C  0.63648476  0.27469994  0.48692088    -0.01200
C626        C  0.65877052  0.28118338  0.46781964    -0.06300
H627        H  0.62959680  0.31448642  0.40096405     0.06100
H628        H  0.63893080  0.26340705  0.51074416     0.09500
Br629      Br  0.66818983  0.25934948  0.36961147    -0.06000
Br630      Br  0.74193823  0.35369987  0.43765081    -0.03000
Br631      Br  0.57607427  0.31022343  0.42766151    -0.00100
Br632      Br  0.69218036  0.26993173  0.48551594    -0.04500
C633        C  0.77103062  0.19339333  0.88398524    -0.11900
C634        C  0.78202052  0.17750664  0.91064148     0.03600
C635        C  0.80694252  0.18322410  0.92395615    -0.12400
C636        C  0.82143009  0.20434808  0.91082738     0.18400
C637        C  0.81168234  0.21850831  0.88199621    -0.09500
C638        C  0.78671983  0.21298825  0.86879400    -0.02400
H639        H  0.81454424  0.17189376  0.94573613     0.05000
C640        C  0.84450194  0.21377187  0.93062625     0.20400
H641        H  0.77896371  0.22523173  0.84799903     0.10100
C642        C  0.86909007  0.20182357  0.92639078    -0.15800
C643        C  0.89086196  0.21049219  0.94572558     0.03100
C644        C  0.88816577  0.23164965  0.96939434    -0.11100
C645        C  0.86338270  0.24322213  0.97373675    -0.01200
C646        C  0.84171931  0.23441748  0.95481576    -0.06300
H647        H  0.87122820  0.18547314  0.90848255     0.06100
H648        H  0.86077233  0.25915012  0.99223168     0.09500
Br649      Br  0.83114722  0.24675000  0.86155821    -0.06000
Br650      Br  0.76417056  0.14776531  0.92993412    -0.03000
Br651      Br  0.92289010  0.19108553  0.94142940    -0.00100
Br652      Br  0.80838840  0.25060364  0.96378312    -0.04500
C653        C  0.69176860  0.27468755  0.88326065    -0.11900
C654        C  0.70771024  0.29302427  0.86538736     0.03600
C655        C  0.71226560  0.31786703  0.88004715    -0.12400
C656        C  0.70127982  0.32496042  0.91235719     0.18400
C657        C  0.68381991  0.30760940  0.92881227    -0.09500
C658        C  0.67931922  0.28275698  0.91440907    -0.02400
H659        H  0.72599023  0.33099573  0.86744064     0.05000
C660        C  0.71233618  0.34760369  0.93173971     0.20400
H661        H  0.66706092  0.26918259  0.92871522     0.10100
C662        C  0.70193996  0.37296707  0.92777272    -0.15800
C663        C  0.71236508  0.39423881  0.94670066     0.03100
C664        C  0.73355633  0.39018584  0.96995699    -0.11100
C665        C  0.74381121  0.36473475  0.97362257    -0.01200
C666        C  0.73351801  0.34366983  0.95472947    -0.06300
H667        H  0.68549245  0.37613546  0.91035931     0.06100
H668        H  0.76005858  0.36117845  0.99126042     0.09500
Br669      Br  0.66755865  0.31621226  0.97265923    -0.06000
Br670      Br  0.72689678  0.28442609  0.82367101    -0.03000
Br671      Br  0.69569737  0.42782068  0.94181507    -0.00100
Br672      Br  0.74901102  0.30963718  0.96120164    -0.04500
C673        C  0.70855296  0.13282022  0.75193873    -0.11900
C674        C  0.73533032  0.13104001  0.74277882     0.03600
C675        C  0.74279750  0.11856908  0.71150297    -0.12400
C676        C  0.72400336  0.10788808  0.68882694     0.18400
C677        C  0.69746123  0.10861556  0.69861254    -0.09500
C678        C  0.68998693  0.12072448  0.73000549    -0.02400
H679        H  0.76328160  0.11810604  0.70415396     0.05000
C680        C  0.73181919  0.09938242  0.65315390     0.20400
H681        H  0.66933274  0.12196042  0.73626317     0.10100
C682        C  0.73778267  0.07298393  0.64607758    -0.15800
C683        C  0.74386076  0.06472734  0.61182440     0.03100
C684        C  0.74330666  0.08297229  0.58391170    -0.11100
C685        C  0.73819510  0.10948286  0.59159200    -0.01200
C686        C  0.73270807  0.11772696  0.62570748    -0.06300
H687        H  0.73782653  0.05883614  0.66724258     0.06100
H688        H  0.73802633  0.12395422  0.57081415     0.09500
Br689      Br  0.67056098  0.09515435  0.66849641    -0.06000
Br690      Br  0.76256896  0.14512082  0.77182703    -0.03000
Br691      Br  0.75478357  0.02900437  0.60526677    -0.00100
Br692      Br  0.72628564  0.15437139  0.63361632    -0.04500
C693        C  0.58011561  0.25403152  0.59004289    -0.11900
C694        C  0.56158628  0.25281236  0.61756154     0.03600
C695        C  0.56965093  0.24546380  0.65139325    -0.12400
C696        C  0.59593557  0.23935018  0.65837056     0.18400
C697        C  0.61435567  0.24060682  0.63112906    -0.09500
C698        C  0.60645215  0.24797466  0.59758391    -0.02400
H699        H  0.55537751  0.24449145  0.67234353     0.05000
C700        C  0.60408642  0.23049027  0.69359724     0.20400
H701        H  0.62109782  0.24836832  0.57706995     0.10100
C702        C  0.60222277  0.20377669  0.70181219    -0.15800
C703        C  0.61422877  0.19360946  0.73188556     0.03100
C704        C  0.62821360  0.21046792  0.75457983    -0.11100
C705        C  0.62889645  0.23744992  0.74708871    -0.01200
C706        C  0.61700537  0.24750015  0.71689480    -0.06300
H707        H  0.59273334  0.19051891  0.68362036     0.06100
H708        H  0.63960504  0.25064527  0.76411719     0.09500
Br709      Br  0.65049938  0.23152883  0.63823198    -0.06000
Br710      Br  0.52540611  0.26187801  0.61128191    -0.03000
Br711      Br  0.61372042  0.15617987  0.73770198    -0.00100
Br712      Br  0.62036444  0.28425812  0.70725252    -0.04500
C713        C  0.72037242  0.70478558  0.89848768    -0.11900
C714        C  0.69750704  0.70142246  0.87797649     0.03600
C715        C  0.67281944  0.70738060  0.89229788    -0.12400
C716        C  0.67050839  0.71656351  0.92683771     0.18400
C717        C  0.69309383  0.71927618  0.94745052    -0.09500
C718        C  0.71757840  0.71342303  0.93335029    -0.02400
H719        H  0.65539801  0.70494643  0.87644417     0.05000
C720        C  0.64471353  0.72373483  0.94157516     0.20400
H721        H  0.73464917  0.71644085  0.94968714     0.10100
C722        C  0.63175721  0.70581438  0.96333446    -0.15800
C723        C  0.60998796  0.71360682  0.98306826     0.03100
C724        C  0.60106736  0.73974313  0.98140457    -0.11100
C725        C  0.61303841  0.75720475  0.95796911    -0.01200
C726        C  0.63480104  0.74940896  0.93821942    -0.06300
H727        H  0.63915754  0.68596483  0.96586032     0.06100
H728        H  0.60618071  0.77729729  0.95619240     0.09500
Br729      Br  0.69152100  0.73178962  0.99488152    -0.06000
Br730      Br  0.69844058  0.68786289  0.83107152    -0.03000
Br731      Br  0.59267597  0.68772936  0.01102851    -0.00100
Br732      Br  0.65149720  0.77487939  0.90882975    -0.04500
C733        C  0.73676399  0.98738054  0.99955147    -0.11900
C734        C  0.75223506  0.00157526  0.97551295     0.03600
C735        C  0.74239573  0.02451424  0.96013878    -0.12400
C736        C  0.71731499  0.03380189  0.96851352     0.18400
C737        C  0.70220975  0.02023704  0.99336066    -0.09500
C738        C  0.71196385  0.99725525  0.00868337    -0.02400
H739        H  0.75438433  0.03523130  0.94163978     0.05000
C740        C  0.70742150  0.05795932  0.95157737     0.20400
H741        H  0.69980704  0.98669786  0.02713704     0.10100
C742        C  0.68912868  0.05613742  0.92430619    -0.15800
C743        C  0.67948958  0.07869555  0.90759570     0.03100
C744        C  0.68845880  0.10383124  0.91803518    -0.11100
C745        C  0.70635111  0.10532525  0.94612508    -0.01200
C746        C  0.71586864  0.08278117  0.96265638    -0.06300
H747        H  0.68222522  0.03700387  0.91608781     0.06100
H748        H  0.71330011  0.12417523  0.95525078     0.09500
Br749      Br  0.66828881  0.03263304  0.00728499    -0.06000
Br750      Br  0.78743848  0.99159754  0.96431306    -0.03000
Br751      Br  0.65326470  0.07340504  0.87222495    -0.00100
Br752      Br  0.74008860  0.08676665  0.00073468    -0.04500
C753        C  0.76614789  0.89697482  0.97819793    -0.11900
C754        C  0.78967966  0.89736256  0.95893688     0.03600
C755        C  0.79655418  0.87579394  0.93806950    -0.12400
C756        C  0.78022681  0.85376740  0.93604757     0.18400
C757        C  0.75650066  0.85358741  0.95485554    -0.09500
C758        C  0.74966611  0.87509444  0.97562148    -0.02400
H759        H  0.81510377  0.87581618  0.92427772     0.05000
C760        C  0.78943612  0.82991657  0.91781197     0.20400
H761        H  0.73158711  0.87450116  0.99046951     0.10100
C762        C  0.80897603  0.81464775  0.93362044    -0.15800
C763        C  0.81510198  0.78963795  0.92087131     0.03100
C764        C  0.80125080  0.77940223  0.89181718    -0.11100
C765        C  0.78340981  0.79591100  0.87418820    -0.01200
C766        C  0.77747771  0.82093590  0.88691374    -0.06300
H767        H  0.81876413  0.82180635  0.95695486     0.06100
H768        H  0.77280868  0.78886046  0.85147209     0.09500
Br769      Br  0.73371387  0.82365967  0.95515499    -0.06000
Br770      Br  0.81429318  0.92545901  0.96300254    -0.03000
Br771      Br  0.84248742  0.77084145  0.94450681    -0.00100
Br772      Br  0.75208011  0.84166845  0.86220985    -0.04500
C773        C  0.77171694  0.80896789  0.39504881    -0.11900
C774        C  0.78302396  0.82526769  0.42088948     0.03600
C775        C  0.80832236  0.81979763  0.43337714    -0.12400
C776        C  0.82274151  0.79851557  0.42009828     0.18400
C777        C  0.81237937  0.78375245  0.39230500    -0.09500
C778        C  0.78719142  0.78909430  0.37991219    -0.02400
H779        H  0.81625547  0.83137213  0.45466591     0.05000
C780        C  0.84556052  0.78851577  0.43989412     0.20400
H781        H  0.77906068  0.77640523  0.35992334     0.10100
C782        C  0.84069619  0.77043924  0.46664783    -0.15800
C783        C  0.86117915  0.75893939  0.48534515     0.03100
C784        C  0.88737780  0.76591518  0.47793046    -0.11100
C785        C  0.89232198  0.78368669  0.45051211    -0.01200
C786        C  0.87158874  0.79495494  0.43145506    -0.06300
H787        H  0.82074140  0.76478464  0.47248793     0.06100
H788        H  0.91226127  0.78911032  0.44426558     0.09500
Br789      Br  0.83099315  0.75442063  0.37285399    -0.06000
Br790      Br  0.76495558  0.85511813  0.43993573    -0.03000
Br791      Br  0.85181190  0.73230730  0.51869680    -0.00100
Br792      Br  0.87951427  0.81877218  0.39412911    -0.04500
C793        C  0.69361232  0.72745786  0.40309230    -0.11900
C794        C  0.69040628  0.70516376  0.38131854     0.03600
C795        C  0.69392984  0.67985495  0.39525069    -0.12400
C796        C  0.70046988  0.67628041  0.43064444     0.18400
C797        C  0.70324710  0.69834715  0.45238215    -0.09500
C798        C  0.69963337  0.72346395  0.43871514    -0.02400
H799        H  0.69190089  0.66291038  0.37832704     0.05000
C800        C  0.70690413  0.64988532  0.44433516     0.20400
H801        H  0.70256197  0.74005383  0.45602028     0.10100
C802        C  0.73200960  0.63976940  0.43810554    -0.15800
C803        C  0.74111889  0.61780607  0.45642690     0.03100
C804        C  0.72505659  0.60574848  0.48171502    -0.11100
C805        C  0.69942792  0.61505372  0.48669318    -0.01200
C806        C  0.69016044  0.63676602  0.46780096    -0.06300
H807        H  0.74508164  0.64986707  0.42033144     0.06100
H808        H  0.68677793  0.60568512  0.50568719     0.09500
Br809      Br  0.71382830  0.69525749  0.50052202    -0.06000
Br810      Br  0.68075400  0.70767803  0.33281596    -0.03000
Br811      Br  0.77660792  0.60682536  0.44859964    -0.00100
Br812      Br  0.65489704  0.64845543  0.47545047    -0.04500
C813        C  0.70903806  0.86505974  0.26081335    -0.11900
C814        C  0.73270111  0.85981255  0.24258978     0.03600
C815        C  0.73860903  0.87363475  0.21179913    -0.12400
C816        C  0.72166656  0.89296803  0.19874794     0.18400
C817        C  0.69903116  0.89939765  0.21778547    -0.09500
C818        C  0.69292211  0.88559655  0.24838038    -0.02400
H819        H  0.75626420  0.86879159  0.19738459     0.05000
C820        C  0.72655166  0.90424445  0.16358262     0.20400
H821        H  0.67482137  0.89044111  0.26172148     0.10100
C822        C  0.71367525  0.89319738  0.13471767    -0.15800
C823        C  0.71874004  0.90200992  0.10070907     0.03100
C824        C  0.73689144  0.92235444  0.09506689    -0.11100
C825        C  0.74915421  0.93408599  0.12405458    -0.01200
C826        C  0.74421350  0.92502883  0.15818794    -0.06300
H827        H  0.69985912  0.87739408  0.13865930     0.06100
H828        H  0.76312439  0.94974185  0.12006667     0.09500
Br829      Br  0.67553772  0.92645583  0.20235015    -0.06000
Br830      Br  0.75807260  0.83436125  0.25778390    -0.03000
Br831      Br  0.69981518  0.88603586  0.06285367    -0.00100
Br832      Br  0.76206203  0.94124100  0.19668501    -0.04500
C833        C  0.57096647  0.76115905  0.09989125    -0.11900
C834        C  0.57840703  0.73909383  0.11987326     0.03600
C835        C  0.58728458  0.74234809  0.15431356    -0.12400
C836        C  0.58919414  0.76742090  0.16923238     0.18400
C837        C  0.58121224  0.78942491  0.14952789    -0.09500
C838        C  0.57168709  0.78609322  0.11544566    -0.02400
H839        H  0.59363478  0.72534473  0.16910739     0.05000
C840        C  0.60306528  0.77063588  0.20300836     0.20400
H841        H  0.56653182  0.80326626  0.10018931     0.10100
C842        C  0.63005267  0.76587382  0.20381102    -0.15800
C843        C  0.64499648  0.77211755  0.23329112     0.03100
C844        C  0.63280747  0.78341362  0.26306145    -0.11100
C845        C  0.60542905  0.78670754  0.26287697    -0.01200
C846        C  0.59053643  0.78018448  0.23329121    -0.06300
H847        H  0.63979598  0.75842853  0.18059925     0.06100
H848        H  0.59562861  0.79497454  0.28553196     0.09500
Br849      Br  0.58600596  0.82462882  0.16622311    -0.06000
Br850      Br  0.57690760  0.70415105  0.10152811    -0.03000
Br851      Br  0.68220566  0.76722665  0.22896464    -0.00100
Br852      Br  0.55328894  0.78489691  0.23510559    -0.04500
C853        C  0.68367339  0.89960408  0.42036791    -0.11900
C854        C  0.68979711  0.90423047  0.45606774     0.03600
C855        C  0.69703655  0.92939814  0.46708867    -0.12400
C856        C  0.69836409  0.95038877  0.44341420     0.18400
C857        C  0.69196642  0.94596437  0.40801001    -0.09500
C858        C  0.68453905  0.92089682  0.39690891    -0.02400
H859        H  0.70210575  0.93254775  0.49434254     0.05000
C860        C  0.70797878  0.97619902  0.45598326     0.20400
H861        H  0.68011379  0.91795362  0.36942520     0.10100
C862        C  0.73150299  0.98611285  0.44255418    -0.15800
C863        C  0.74218105  0.00951407  0.45525661     0.03100
C864        C  0.72971617  0.02306859  0.48304003    -0.11100
C865        C  0.70604831  0.01317324  0.49628109    -0.01200
C866        C  0.69494916  0.99024645  0.48260566    -0.06300
H867        H  0.74181215  0.97537804  0.42228396     0.06100
H868        H  0.69580558  0.02363347  0.51685824     0.09500
Br869      Br  0.69301769  0.97343256  0.37366223    -0.06000
Br870      Br  0.68833910  0.87759321  0.49162962    -0.03000
Br871      Br  0.77442410  0.02089471  0.43432948    -0.00100
Br872      Br  0.66133132  0.97963065  0.49986081    -0.04500
C873        C  0.23490353  0.89226788  0.47068305    -0.11900
C874        C  0.23984126  0.86580976  0.48025167     0.03600
C875        C  0.22969133  0.84531131  0.46011556    -0.12400
C876        C  0.21517200  0.85026164  0.42974188     0.18400
C877        C  0.21118088  0.87641382  0.41905846    -0.09500
C878        C  0.22093905  0.89718250  0.43952705    -0.02400
H879        H  0.23345153  0.82523760  0.46797950     0.05000
C880        C  0.20496509  0.82741140  0.40990560     0.20400
H881        H  0.21707041  0.91717692  0.43147827     0.10100
C882        C  0.18361840  0.81342456  0.42341460    -0.15800
C883        C  0.17664911  0.78887196  0.40972368     0.03100
C884        C  0.19156689  0.77755954  0.38233180    -0.11100
C885        C  0.21169988  0.79263039  0.36718998    -0.01200
C886        C  0.21849750  0.81722798  0.38082575    -0.06300
H887        H  0.17290794  0.82123474  0.44559347     0.06100
H888        H  0.22345329  0.78456037  0.34616603     0.09500
Br889      Br  0.19216420  0.88451614  0.37712417    -0.06000
Br890      Br  0.26170933  0.85571917  0.51907762    -0.03000
Br891      Br  0.14663512  0.77195097  0.42975366    -0.00100
Br892      Br  0.24797986  0.83511891  0.36102601    -0.04500
C893        C  0.47560647  0.76810823  0.48933340    -0.11900
C894        C  0.48845126  0.79089070  0.50174476     0.03600
C895        C  0.51226451  0.79864507  0.48679698    -0.12400
C896        C  0.52368529  0.78424612  0.45947014     0.18400
C897        C  0.51072627  0.76192688  0.44655469    -0.09500
C898        C  0.48692525  0.75412208  0.46135124    -0.02400
H899        H  0.52203568  0.81600620  0.49665300     0.05000
C900        C  0.54954704  0.79231910  0.44566593     0.20400
H901        H  0.47743368  0.73670613  0.45120783     0.10100
C902        C  0.57176211  0.77753000  0.45442579    -0.15800
C903        C  0.59666439  0.78467158  0.44243123     0.03100
C904        C  0.59977122  0.80744246  0.42155427    -0.11100
C905        C  0.57727106  0.82203486  0.41258878    -0.01200
C906        C  0.55238743  0.81462700  0.42435894    -0.06300
H907        H  0.56964375  0.76012346  0.47044243     0.06100
H908        H  0.57897575  0.83927334  0.39617960     0.09500
Br909      Br  0.52465378  0.74170503  0.40844114    -0.06000
Br910      Br  0.47415323  0.81321181  0.53753202    -0.03000
Br911      Br  0.62494522  0.76115820  0.45351931    -0.00100
Br912      Br  0.52267908  0.83491018  0.40957781    -0.04500
C913        C  0.39039455  0.72414958  0.47439905    -0.11900
C914        C  0.37322289  0.70433045  0.48627796     0.03600
C915        C  0.35173407  0.69702552  0.46574683    -0.12400
C916        C  0.34694915  0.70903192  0.43332863     0.18400
C917        C  0.36490398  0.72752483  0.42042532    -0.09500
C918        C  0.38657017  0.73472211  0.44073573    -0.02400
H919        H  0.33795388  0.68281196  0.47587344     0.05000
C920        C  0.32081665  0.70598111  0.41721456     0.20400
H921        H  0.39946096  0.74991214  0.43108492     0.10100
C922        C  0.30004457  0.71979433  0.43241770    -0.15800
C923        C  0.27478498  0.71799082  0.41891048     0.03100
C924        C  0.26968529  0.70153751  0.38989313    -0.11100
C925        C  0.29063789  0.68815082  0.37395670    -0.01200
C926        C  0.31615568  0.69026206  0.38748085    -0.06300
H927        H  0.30362655  0.73242481  0.45478175     0.06100
H928        H  0.28708546  0.67570969  0.35142409     0.09500
Br929      Br  0.35908088  0.74544906  0.37692616    -0.06000
Br930      Br  0.37773426  0.68657622  0.53028337    -0.03000
Br931      Br  0.24852105  0.74011838  0.43983344    -0.00100
Br932      Br  0.34390371  0.67121678  0.36511882    -0.04500
C933        C  0.10686425  0.76874901  0.97005490    -0.11900
C934        C  0.10664845  0.77110375  0.93295357     0.03600
C935        C  0.12908596  0.77991343  0.91522771    -0.12400
C936        C  0.15218722  0.78593775  0.93338394     0.18400
C937        C  0.15257911  0.78352414  0.97004087    -0.09500
C938        C  0.13018794  0.77537373  0.98787253    -0.02400
H939        H  0.12869594  0.78158618  0.88695097     0.05000
C940        C  0.17613031  0.79372993  0.91400667     0.20400
H941        H  0.13148434  0.77372176  0.01608691     0.10100
C942        C  0.18706594  0.81860735  0.91990189    -0.15800
C943        C  0.21182612  0.82503742  0.90670469     0.03100
C944        C  0.22585518  0.80655507  0.88646061    -0.11100
C945        C  0.21393607  0.78246292  0.87837088    -0.01200
C946        C  0.18949943  0.77582962  0.89226435    -0.06300
H947        H  0.17676448  0.83266762  0.93617570     0.06100
H948        H  0.22445463  0.76791517  0.86313213     0.09500
Br949      Br  0.18378289  0.78945599  0.99705374    -0.06000
Br950      Br  0.07740953  0.76187210  0.90392371    -0.03000
Br951      Br  0.22547510  0.85917709  0.91746627    -0.00100
Br952      Br  0.17668267  0.74102288  0.88383072    -0.04500
C953        C  0.30719803  0.73179550  0.89139478    -0.11900
C954        C  0.30270604  0.71051665  0.86803014     0.03600
C955        C  0.29804078  0.68534158  0.88137144    -0.12400
C956        C  0.29777759  0.68069651  0.91750625     0.18400
C957        C  0.30356528  0.70131446  0.94063743    -0.09500
C958        C  0.30836060  0.72642169  0.92757857    -0.02400
H959        H  0.29361462  0.66941777  0.86346818     0.05000
C960        C  0.28894610  0.65505768  0.93102055     0.20400
H961        H  0.31193263  0.74206149  0.94621015     0.10100
C962        C  0.30707576  0.63778028  0.94635374    -0.15800
C963        C  0.29854622  0.61516145  0.96376650     0.03100
C964        C  0.27164396  0.60938490  0.96517096    -0.11100
C965        C  0.25368662  0.62608499  0.94862270    -0.01200
C966        C  0.26209156  0.64891390  0.93188693    -0.06300
H967        H  0.32773133  0.64254063  0.94614496     0.06100
H968        H  0.23289988  0.62212155  0.95047447     0.09500
Br969      Br  0.30294099  0.69659714  0.99052393    -0.06000
Br970      Br  0.30108274  0.71390129  0.81788791    -0.03000
Br971      Br  0.32396960  0.59362316  0.98706555    -0.00100
Br972      Br  0.23596882  0.67242443  0.91379306    -0.04500
C973        C  0.28549470  0.86530520  0.75211371    -0.11900
C974        C  0.28280918  0.89280775  0.75095537     0.03600
C975        C  0.27458290  0.90495448  0.71990518    -0.12400
C976        C  0.26940259  0.89006793  0.68971217     0.18400
C977        C  0.27263594  0.86260260  0.69082576    -0.09500
C978        C  0.28006872  0.85048313  0.72202526    -0.02400
H979        H  0.27255863  0.92611156  0.71913399     0.05000
C980        C  0.26281592  0.90351910  0.65653659     0.20400
H981        H  0.28291503  0.82940427  0.72228853     0.10100
C982        C  0.28158879  0.91982765  0.64103465    -0.15800
C983        C  0.27777759  0.93000663  0.60738376     0.03100
C984        C  0.25483272  0.92365152  0.58857992    -0.11100
C985        C  0.23539357  0.90859357  0.60503862    -0.01200
C986        C  0.23902988  0.89890290  0.63895605    -0.06300
H987        H  0.29984502  0.92365247  0.65453339     0.06100
H988        H  0.21749324  0.90393194  0.59118432     0.09500
Br989      Br  0.26968109  0.84086637  0.64985609    -0.06000
Br990      Br  0.28959688  0.91446514  0.79107276    -0.03000
Br991      Br  0.30587223  0.95004559  0.58752174    -0.00100
Br992      Br  0.21108767  0.87935471  0.66007782    -0.04500
C993        C  0.41617649  0.75598800  0.59090533    -0.11900
C994        C  0.43517169  0.75855590  0.61774479     0.03600
C995        C  0.42729068  0.76417020  0.65218719    -0.12400
C996        C  0.40071689  0.76683969  0.66063765     0.18400
C997        C  0.38178073  0.76350260  0.63429597    -0.09500
C998        C  0.38953646  0.75808840  0.59995727    -0.02400
H999        H  0.44194563  0.76659866  0.67244269     0.05000
C1000       C  0.39280458  0.77530392  0.69614885     0.20400
H1001       H  0.37453984  0.75621436  0.58005004     0.10100
C1002       C  0.39295395  0.80217779  0.70383068    -0.15800
C1003       C  0.38102107  0.81180718  0.73422015     0.03100
C1004       C  0.36906739  0.79427917  0.75794871    -0.11100
C1005       C  0.37005818  0.76720870  0.75098763    -0.01200
C1006       C  0.38183063  0.75766030  0.72037196    -0.06300
H1007       H  0.40088836  0.81588585  0.68494740     0.06100
H1008       H  0.36073586  0.75353744  0.76874199     0.09500
Br1009     Br  0.34504425  0.76740707  0.64375082    -0.06000
Br1010     Br  0.47194849  0.75341146  0.60984714    -0.03000
Br1011     Br  0.37829135  0.84923578  0.73900852    -0.00100
Br1012     Br  0.38104551  0.72062671  0.71154596    -0.04500
C1013       C  0.39398643  0.82007920  0.92109355    -0.11900
C1014       C  0.41332478  0.83956884  0.92550867     0.03600
C1015       C  0.43764252  0.83294028  0.94007500    -0.12400
C1016       C  0.44306478  0.80711474  0.95044506     0.18400
C1017       C  0.42355729  0.78783101  0.94703165    -0.09500
C1018       C  0.39929213  0.79439403  0.93248751    -0.02400
H1019       H  0.45240463  0.84799193  0.94334950     0.05000
C1020       C  0.46896868  0.80054841  0.96532405     0.20400
H1021       H  0.38462814  0.77920811  0.92953754     0.10100
C1022       C  0.47478340  0.80777927  0.99985319    -0.15800
C1023       C  0.49826134  0.79994002  0.01582155     0.03100
C1024       C  0.51643889  0.78422428  0.99697292    -0.11100
C1025       C  0.51084206  0.77828380  0.96165826    -0.01200
C1026       C  0.48750871  0.78631518  0.94588218    -0.06300
H1027       H  0.46072226  0.81922863  0.01467583     0.06100
H1028       H  0.52435349  0.76670802  0.94616479     0.09500
Br1029     Br  0.42912289  0.75237388  0.96235475    -0.06000
Br1030     Br  0.40705099  0.87575315  0.91429979    -0.03000
Br1031     Br  0.50385204  0.81219738  0.06284562    -0.00100
Br1032     Br  0.48168694  0.77710480  0.89773832    -0.04500
C1033       C  0.47804587  0.23414905  0.98457705    -0.11900
C1034       C  0.48000864  0.22272821  0.95082144     0.03600
C1035       C  0.50433164  0.21404490  0.93836113    -0.12400
C1036       C  0.52700206  0.21640432  0.95877999     0.18400
C1037       C  0.52519523  0.22783767  0.99227172    -0.09500
C1038       C  0.50088932  0.23636869  0.00497690    -0.02400
H1039       H  0.50558494  0.20528402  0.91252046     0.05000
C1040       C  0.55244588  0.20760753  0.94416094     0.20400
H1041       H  0.49989159  0.24494981  0.03093544     0.10100
C1042       C  0.57050463  0.22650551  0.93314067    -0.15800
C1043       C  0.59443983  0.21910484  0.91830736     0.03100
C1044       C  0.60084626  0.19229062  0.91446598    -0.11100
C1045       C  0.58255732  0.17331721  0.92495467    -0.01200
C1046       C  0.55852831  0.18079774  0.93983656    -0.06300
H1047       H  0.56575123  0.24716368  0.93560922     0.06100
H1048       H  0.58713374  0.15265228  0.92206158     0.09500
Br1049     Br  0.55534679  0.23174134  0.02178656    -0.06000
Br1050     Br  0.45029513  0.21669793  0.92104534    -0.03000
Br1051     Br  0.61670630  0.24649021  0.90116098    -0.00100
Br1052     Br  0.53486726  0.15388145  0.95480386    -0.04500
C1053       C  0.27321325  0.31328802  0.88462999    -0.11900
C1054       C  0.28195308  0.32411758  0.91677177     0.03600
C1055       C  0.30682977  0.31774935  0.92972974    -0.12400
C1056       C  0.32349330  0.30078304  0.91134488     0.18400
C1057       C  0.31576261  0.29155440  0.87819200    -0.09500
C1058       C  0.29097501  0.29809736  0.86488739    -0.02400
H1059       H  0.31272309  0.32506079  0.95520998     0.05000
C1060       C  0.34653545  0.28969017  0.92978657     0.20400
H1061       H  0.28488757  0.28955840  0.84019696     0.10100
C1062       C  0.34253793  0.26810800  0.95182445    -0.15800
C1063       C  0.36297798  0.25774236  0.97188325     0.03100
C1064       C  0.38817152  0.26896865  0.97012304    -0.11100
C1065       C  0.39243727  0.29009642  0.94711453    -0.01200
C1066       C  0.37174329  0.30065156  0.92725556    -0.06300
H1067       H  0.32325683  0.25942511  0.95367872     0.06100
H1068       H  0.41165872  0.29890664  0.94541244     0.09500
Br1069     Br  0.33752518  0.26805575  0.85179234    -0.06000
Br1070     Br  0.26086213  0.34723033  0.94490169    -0.03000
Br1071     Br  0.35540343  0.22753032  0.00012788    -0.00100
Br1072     Br  0.37841374  0.33041996  0.89795089    -0.04500
C1073       C  0.30578127  0.90497247  0.91331502    -0.11900
C1074       C  0.31635048  0.92935530  0.90218905     0.03600
C1075       C  0.30773011  0.95283245  0.91767398    -0.12400
C1076       C  0.28870818  0.95283071  0.94411106     0.18400
C1077       C  0.27811375  0.92878010  0.95513903    -0.09500
C1078       C  0.28671978  0.90529288  0.93997649    -0.02400
H1079       H  0.31609360  0.97138576  0.90910363     0.05000
C1080       C  0.28017260  0.97800226  0.96008240     0.20400
H1081       H  0.27807428  0.88702132  0.94901917     0.10100
C1082       C  0.25807291  0.99093829  0.94681133    -0.15800
C1083       C  0.24938859  0.01472454  0.96130462     0.03100
C1084       C  0.26316744  0.02626047  0.98971686    -0.11100
C1085       C  0.28508980  0.01282421  0.00323771    -0.01200
C1086       C  0.29358388  0.98901004  0.98869045    -0.06300
H1087       H  0.24738078  0.98233510  0.92516264     0.06100
H1088       H  0.29601563  0.02103728  0.02492500     0.09500
Br1089     Br  0.25182560  0.92718561  0.99091174    -0.06000
Br1090     Br  0.34328133  0.93232270  0.86729355    -0.03000
Br1091     Br  0.21777051  0.02920115  0.94187177    -0.00100
Br1092     Br  0.32359245  0.97203778  0.00874493    -0.04500
C1093       C  0.22445102  0.11469458  0.97607830    -0.11900
C1094       C  0.20935597  0.13555705  0.99011957     0.03600
C1095       C  0.20112186  0.15604504  0.96837169    -0.12400
C1096       C  0.20744212  0.15626304  0.93266343     0.18400
C1097       C  0.22097685  0.13478145  0.91817644    -0.09500
C1098       C  0.22917109  0.11417289  0.93976765    -0.02400
H1099       H  0.19068186  0.17252497  0.97972566     0.05000
C1100       C  0.20337933  0.18075649  0.91265261     0.20400
H1101       H  0.24039973  0.09830118  0.92825748     0.10100
C1102       C  0.22553753  0.19516853  0.90285848    -0.15800
C1103       C  0.22305331  0.22024876  0.88864524     0.03100
C1104       C  0.19803206  0.23141124  0.88425322    -0.11100
C1105       C  0.17577078  0.21681732  0.89309608    -0.01200
C1106       C  0.17827740  0.19149910  0.90697077    -0.06300
H1107       H  0.24493570  0.18730823  0.90775568     0.06100
H1108       H  0.15646293  0.22534213  0.88985585     0.09500
Br1109     Br  0.22951700  0.13326477  0.86926824    -0.06000
Br1110     Br  0.19903909  0.13761488  0.03847635    -0.03000
Br1111     Br  0.25453957  0.23936668  0.87901024    -0.00100
Br1112     Br  0.14703917  0.17243261  0.91792513    -0.04500
C1113       C  0.10949043  0.22383486  0.47487693    -0.11900
C1114       C  0.10824654  0.20755802  0.44491939     0.03600
C1115       C  0.13126042  0.20130067  0.42649389    -0.12400
C1116       C  0.15563427  0.21080367  0.43764655     0.18400
C1117       C  0.15681650  0.22744386  0.46697112    -0.09500
C1118       C  0.13399916  0.23379012  0.48514476    -0.02400
H1119       H  0.13024566  0.18841208  0.40394126     0.05000
C1120       C  0.17994215  0.20304082  0.41925602     0.20400
H1121       H  0.13553783  0.24661413  0.50771871     0.10100
C1122       C  0.18720914  0.21623472  0.38860591    -0.15800
C1123       C  0.21222025  0.21286285  0.37412388     0.03100
C1124       C  0.23053736  0.19592784  0.39060921    -0.11100
C1125       C  0.22240513  0.18150429  0.42008251    -0.01200
C1126       C  0.19739085  0.18487041  0.43429913    -0.06300
H1127       H  0.17384306  0.23029329  0.37695736     0.06100
H1128       H  0.23588960  0.16817037  0.43292763     0.09500
Br1129     Br  0.18926455  0.24190426  0.48343036    -0.06000
Br1130     Br  0.07643793  0.19152241  0.42953312    -0.03000
Br1131     Br  0.22058870  0.23417996  0.33417850    -0.00100
Br1132     Br  0.18826096  0.16525072  0.47540184    -0.04500
C1133       C  0.30793297  0.27686187  0.38812116    -0.11900
C1134       C  0.32008980  0.28750079  0.41827037     0.03600
C1135       C  0.31259459  0.31220750  0.43053084    -0.12400
C1136       C  0.29307264  0.32671406  0.41352410     0.18400
C1137       C  0.28246679  0.31729761  0.38195408    -0.09500
C1138       C  0.29000936  0.29257340  0.36939265    -0.02400
H1139       H  0.32114286  0.31964725  0.45454880     0.05000
C1140       C  0.28224432  0.34993538  0.43158198     0.20400
H1141       H  0.28044905  0.28493382  0.34619215     0.10100
C1142       C  0.28930738  0.37524940  0.42086348    -0.15800
C1143       C  0.28154513  0.39732000  0.44028480     0.03100
C1144       C  0.26604230  0.39410824  0.47066885    -0.11100
C1145       C  0.25868274  0.36864972  0.48073614    -0.01200
C1146       C  0.26671060  0.34674599  0.46167861    -0.06300
H1147       H  0.30175277  0.37774271  0.39814093     0.06100
H1148       H  0.24670365  0.36566393  0.50380888     0.09500
Br1149     Br  0.25608502  0.33649614  0.35691075    -0.06000
Br1150     Br  0.34654393  0.26934221  0.44473271    -0.03000
Br1151     Br  0.29524414  0.43066484  0.42613209    -0.00100
Br1152     Br  0.25630742  0.31273543  0.47821964    -0.04500
C1153       C  0.26435313  0.08977333  0.08845947    -0.11900
C1154       C  0.27240444  0.11543561  0.09775323     0.03600
C1155       C  0.27768878  0.12151692  0.13277927    -0.12400
C1156       C  0.27492151  0.10264976  0.15915192     0.18400
C1157       C  0.26680503  0.07718178  0.15018888    -0.09500
C1158       C  0.26188285  0.07082482  0.11503633    -0.02400
H1159       H  0.28415873  0.14110507  0.13952642     0.05000
C1160       C  0.28146263  0.11013639  0.19555605     0.20400
H1161       H  0.25543824  0.05118707  0.10858984     0.10100
C1162       C  0.26208625  0.12111763  0.21712187    -0.15800
C1163       C  0.26865324  0.13252772  0.24939187     0.03100
C1164       C  0.29506778  0.13312886  0.26037626    -0.11100
C1165       C  0.31407980  0.12048701  0.23969425    -0.01200
C1166       C  0.30749600  0.10924503  0.20746037    -0.06300
H1167       H  0.24194716  0.12165999  0.20823446     0.06100
H1168       H  0.33447555  0.12082439  0.24747743     0.09500
Br1169     Br  0.26177084  0.05075098  0.18520689    -0.06000
Br1170     Br  0.27788545  0.14295614  0.06414052    -0.03000
Br1171     Br  0.24084595  0.14696521  0.27729051    -0.00100
Br1172     Br  0.33498062  0.09453913  0.17932469    -0.04500
C1173       C  0.37126958  0.21283025  0.25712242    -0.11900
C1174       C  0.36556647  0.23654812  0.23919637     0.03600
C1175       C  0.37735872  0.24177680  0.20681553    -0.12400
C1176       C  0.39523395  0.22414786  0.19192755     0.18400
C1177       C  0.40272828  0.20174572  0.21093030    -0.09500
C1178       C  0.39078892  0.19622099  0.24313902    -0.02400
H1179       H  0.37194433  0.25938858  0.19260180     0.05000
C1180       C  0.40395437  0.22841608  0.15538063     0.20400
H1181       H  0.39593930  0.17811934  0.25634975     0.10100
C1182       C  0.42507336  0.24516406  0.14830997    -0.15800
C1183       C  0.43244601  0.25068215  0.11364928     0.03100
C1184       C  0.41829258  0.23966915  0.08556019    -0.11100
C1185       C  0.39727703  0.22286173  0.09277274    -0.01200
C1186       C  0.39021000  0.21700680  0.12726913    -0.06300
H1187       H  0.43559466  0.25421337  0.16978119     0.06100
H1188       H  0.38633890  0.21415085  0.07141270     0.09500
Br1189     Br  0.42831769  0.17763644  0.19299361    -0.06000
Br1190     Br  0.34204674  0.26286611  0.25697294    -0.03000
Br1191     Br  0.46078004  0.27459642  0.10593099    -0.00100
Br1192     Br  0.36136970  0.19360644  0.13477707    -0.04500
C1193       C  0.40157229  0.19808869  0.41922538    -0.11900
C1194       C  0.40746335  0.19769850  0.45533105     0.03600
C1195       C  0.43082497  0.20884947  0.46754861    -0.12400
C1196       C  0.44861574  0.22062483  0.44436234     0.18400
C1197       C  0.44293311  0.22067986  0.40823166    -0.09500
C1198       C  0.41968167  0.20937197  0.39597811    -0.02400
H1199       H  0.43526556  0.20814044  0.49528972     0.05000
C1200       C  0.47345139  0.23161935  0.45830315     0.20400
H1201       H  0.41536068  0.21010239  0.36819948     0.10100
C1202       C  0.49722219  0.21925916  0.44992941    -0.15800
C1203       C  0.52088698  0.22812466  0.46408926     0.03100
C1204       C  0.52103338  0.24945819  0.48756792    -0.11100
C1205       C  0.49734616  0.26199998  0.49582681    -0.01200
C1206       C  0.47368999  0.25345959  0.48104478    -0.06300
H1207       H  0.49730623  0.20236134  0.43267016     0.06100
H1208       H  0.49729777  0.27865039  0.51351065     0.09500
Br1209     Br  0.46568022  0.23708823  0.37481523    -0.06000
Br1210     Br  0.38510186  0.18082802  0.48875734    -0.03000
Br1211     Br  0.55237965  0.20957770  0.45208520    -0.00100
Br1212     Br  0.44235863  0.27276824  0.49149361    -0.04500
C1213       C  0.31425680  0.10701618  0.42413650    -0.11900
C1214       C  0.33166130  0.08596288  0.42986723     0.03600
C1215       C  0.32245769  0.06245608  0.44455531    -0.12400
C1216       C  0.29573411  0.05891344  0.45234139     0.18400
C1217       C  0.27847119  0.08032909  0.44722378    -0.09500
C1218       C  0.28788640  0.10404466  0.43373234    -0.02400
H1219       H  0.33621557  0.04666017  0.44938473     0.05000
C1220       C  0.28618120  0.03283122  0.46505624     0.20400
H1221       H  0.27421945  0.12003102  0.42944720     0.10100
C1222       C  0.27149534  0.03135934  0.49612257    -0.15800
C1223       C  0.26081683  0.00758158  0.50765381     0.03100
C1224       C  0.26595532  0.98408385  0.48913716    -0.11100
C1225       C  0.28087348  0.98541759  0.45831397    -0.01200
C1226       C  0.29079425  0.00939489  0.44609863    -0.06300
H1227       H  0.26779280  0.04899748  0.51122831     0.06100
H1228       H  0.28505813  0.96764699  0.44371910     0.09500
Br1229     Br  0.24145787  0.07816081  0.45574121    -0.06000
Br1230     Br  0.36822376  0.08857779  0.41904615    -0.03000
Br1231     Br  0.23745418  0.00898823  0.54708188    -0.00100
Br1232     Br  0.30955738  0.00889097  0.40253114    -0.04500
loop_ 
_geom_bond_atom_site_label_1 
_geom_bond_atom_site_label_2 
_geom_bond_distance 
_geom_bond_site_symmetry_2 
_ccdc_geom_bond_type 
Fe1          O17   2.074       .  S
Fe1           O7   2.054       .  S
Fe1          O14   2.058       .  S
Fe1           O6   2.063       .  S
Fe1          O12   1.980       .  S
Fe2           O5   2.073       .  S
Fe2           O9   2.070       .  S
Fe2          O13   2.087       .  S
Fe2          O18   2.069       .  S
Fe2          O12   1.985       .  S
Fe3          O21   2.067       .  S
Fe3           O8   2.066       .  S
Fe3          O15   2.074       .  S
Fe3           O4   2.072       .  S
Fe3          O12   1.978       .  S
O4           C11   1.269       .  A
O5           C19   1.271       .  A
O6           C11   1.269       .  A
O7           C10   1.267       .  A
O8           C20   1.270       .  A
O9           C22   1.269       .  A
C10          O15   1.271       .  A
C10        C1133   1.485       .  S
C11        C1124   1.488       .  S
O13          C16   1.272       .  A
O14          C16   1.266       .  A
C16        C1213   1.485       .  S
O17          C22   1.269       .  A
O18          C20   1.271       .  A
C19          O21   1.269       .  A
C19        C1173   1.494       .  S
C20        C1164   1.482       .  S
C22        C1193   1.484       .  S
C23        C1084   1.495   1_554  S
C23          N24   1.360   1_554  A
C23          N28   1.365       .  A
N24          C25   1.359       .  A
C25        C1093   1.485       .  S
C25          N26   1.354   1_556  A
N26          C27   1.355       .  A
C27        C1153   1.485       .  S
C27          N28   1.363       .  A
C29        C1033   1.488       .  S
C29          N30   1.363   1_556  A
C29          N34   1.363       .  A
N30          C31   1.359       .  A
C31        C1184   1.477       .  S
C31          N32   1.357       .  A
N32          C33   1.358   1_554  A
C33        C1064   1.482       .  S
C33          N34   1.360       .  A
Fe35         O51   2.078       .  S
Fe35         O41   2.060       .  S
Fe35         O48   2.060       .  S
Fe35         O40   2.077       .  S
Fe35         O46   1.967       .  S
Fe36         O39   2.070       .  S
Fe36         O43   2.068       .  S
Fe36         O47   2.078       .  S
Fe36         O52   2.068       .  S
Fe36         O46   1.974       .  S
Fe37         O55   2.054       .  S
Fe37         O42   2.064       .  S
Fe37         O49   2.077       .  S
Fe37         O38   2.056       .  S
Fe37         O46   1.969       .  S
O38          C45   1.265       .  A
O39          C53   1.271       .  A
O40          C45   1.272       .  A
O41          C44   1.268       .  A
O42          C54   1.268       .  A
O43          C56   1.267       .  A
C44          O49   1.271       .  A
C44         C944   1.482       .  S
C45         C953   1.493       .  S
O47          C50   1.272       .  A
O48          C50   1.269       .  A
C50        C1013   1.480       .  S
O51          C56   1.271       .  A
O52          C54   1.269       .  A
C53          O55   1.269       .  A
C53         C973   1.471       .  S
C54        C1004   1.478       .  S
C56        C1073   1.497       .  S
C57         C893   1.488       .  S
C57          N58   1.361       .  A
C57          N62   1.361       .  A
N58          C59   1.359       .  A
C59         C913   1.484       .  S
C59          N60   1.357       .  A
N60          C61   1.358       .  A
C61         C993   1.489       .  S
C61          N62   1.360       .  A
C63        C1224   1.488       .  S
C63          N64   1.360       .  A
C63          N68   1.369       .  A
N64          C65   1.354       .  A
C65         C984   1.477       .  S
C65          N66   1.353       .  A
N66          C67   1.356       .  A
C67         C873   1.492       .  S
C67          N68   1.367       .  A
Fe69         O85   2.077       .  S
Fe69         O75   2.054       .  S
Fe69         O82   2.060       .  S
Fe69         O74   2.077       .  S
Fe69         O80   1.980       .  S
Fe70         O73   2.068       .  S
Fe70         O77   2.065       .  S
Fe70         O81   2.070       .  S
Fe70         O86   2.062       .  S
Fe70         O80   1.981       .  S
Fe71         O89   2.058       .  S
Fe71         O76   2.083       .  S
Fe71         O83   2.083       .  S
Fe71         O72   2.063       .  S
Fe71         O80   1.977       .  S
O72          C79   1.270       .  A
O73          C87   1.269       .  A
O74          C79   1.272       .  A
O75          C78   1.267       .  A
O76          C88   1.272       .  A
O77          C90   1.269       .  A
C78          O83   1.270       .  A
C78         C793   1.492       .  S
C79         C773   1.486       .  S
O81          C84   1.269       .  A
O82          C84   1.265       .  A
C84         C853   1.490       .  S
O85          C90   1.271       .  A
O86          C88   1.270       .  A
C87          O89   1.266       .  A
C87         C844   1.484       .  S
C88         C813   1.498       .  S
C90         C904   1.491       .  S
C91         C733   1.481   1_554  S
C91          N92   1.362   1_554  A
C91          N96   1.364       .  A
N92          C93   1.358   1_556  A
C93         C753   1.474   1_554  S
C93          N94   1.356       .  A
N94          C95   1.356       .  A
C95         C824   1.477       .  S
C95          N96   1.360       .  A
C97        C1024   1.494   1_554  S
C97          N98   1.361       .  A
C97         N102   1.360   1_554  A
N98          C99   1.361       .  A
C99         C833   1.477       .  S
C99         N100   1.359       .  A
N100        C101   1.358       .  A
C101        C724   1.474   1_554  S
C101        N102   1.355   1_554  A
Fe103       O119   2.066       .  S
Fe103       O109   2.064       .  S
Fe103       O116   2.059       .  S
Fe103       O108   2.063       .  S
Fe103       O114   1.973       .  S
Fe104       O107   2.074       .  S
Fe104       O111   2.072       .  S
Fe104       O115   2.087       .  S
Fe104       O120   2.068       .  S
Fe104       O114   1.982       .  S
Fe105       O123   2.075       .  S
Fe105       O110   2.069       .  S
Fe105       O117   2.080       .  S
Fe105       O106   2.080       .  S
Fe105       O114   1.973       .  S
O106        C113   1.270       .  A
O107        C121   1.271       .  A
O108        C113   1.268       .  A
O109        C112   1.270       .  A
O110        C122   1.271       .  A
O111        C124   1.268       .  A
C112        O117   1.273       .  A
C112        C633   1.488       .  S
C113        C653   1.492       .  S
O115        C118   1.272       .  A
O116        C118   1.268       .  A
C118       C1044   1.481       .  S
O119        C124   1.269       .  A
O120        C122   1.270       .  A
C121        O123   1.271       .  A
C121        C673   1.489       .  S
C122        C704   1.480       .  S
C124        C744   1.494       .  S
C125       C1204   1.476       .  S
C125        N126   1.363       .  A
C125        N130   1.361       .  A
N126        C127   1.361       .  A
C127        C693   1.489       .  S
C127        N128   1.355       .  A
N128        C129   1.355       .  A
C129        C624   1.485       .  S
C129        N130   1.358       .  A
C131        C864   1.484       .  S
C131        N132   1.365       .  A
C131        N136   1.358       .  A
N132        C133   1.363       .  A
C133        C684   1.488       .  S
C133        N134   1.358       .  A
N134        C135   1.356       .  A
C135        C604   1.475       .  S
C135        N136   1.355       .  A
Fe137       O153   2.049       .  S
Fe137       O143   2.059       .  S
Fe137       O150   2.062       .  S
Fe137       O142   2.045       .  S
Fe137       O148   1.967       .  S
Fe138       O141   2.065       .  S
Fe138       O145   2.084       .  S
Fe138       O149   2.072       .  S
Fe138       O154   2.072       .  S
Fe138       O148   1.972       .  S
Fe139       O157   2.086       .  S
Fe139       O144   2.070       .  S
Fe139       O151   2.073       .  S
Fe139       O140   2.088       .  S
Fe139       O148   1.975       .  S
O140        C147   1.273       .  A
O141        C155   1.271       .  A
O142        C147   1.265       .  A
O143        C146   1.268       .  A
O144        C156   1.272       .  A
O145        C158   1.270       .  A
C146        O151   1.271       .  A
C146        C613   1.479       .  S
C147        C593   1.482       .  S
O149        C152   1.271       .  A
O150        C152   1.265       .  A
C152        C573   1.493       .  S
O153        C158   1.267       .  A
O154        C156   1.269       .  A
C155        O157   1.273       .  A
C155        C533   1.487       .  S
C156        C513   1.497       .  S
C158        C553   1.495       .  S
C159        C493   1.508       .  S
C159        N160   1.367   1_556  A
C159        N164   1.366       .  A
N160        C161   1.361       .  A
C161        C524   1.483       .  S
C161        N162   1.354       .  A
N162        C163   1.355   1_554  A
C163        C644   1.483       .  S
C163        N164   1.363       .  A
C165        C484   1.500       .  S
C165        N166   1.364       .  A
C165        N170   1.366   1_556  A
N166        C167   1.361       .  A
C167        C664   1.486       .  S
C167        N168   1.357   1_556  A
N168        C169   1.357       .  A
C169        C544   1.486       .  S
C169        N170   1.361       .  A
Fe171       O187   2.070       .  S
Fe171       O177   2.056       .  S
Fe171       O184   2.070       .  S
Fe171       O176   2.065       .  S
Fe171       O182   1.977       .  S
Fe172       O175   2.067       .  S
Fe172       O179   2.072       .  S
Fe172       O183   2.072       .  S
Fe172       O188   2.061       .  S
Fe172       O182   1.981       .  S
Fe173       O191   2.084       .  S
Fe173       O178   2.071       .  S
Fe173       O185   2.071       .  S
Fe173       O174   2.080       .  S
Fe173       O182   1.982       .  S
O174        C181   1.272       .  A
O175        C189   1.271       .  A
O176        C181   1.268       .  A
O177        C180   1.268       .  A
O178        C190   1.269       .  A
O179        C192   1.267       .  A
C180        O185   1.270       .  A
C180       C1104   1.466       .  S
C181       C1053   1.493       .  S
O183        C186   1.271       .  A
O184        C186   1.271       .  A
C186        C453   1.483       .  S
O187        C192   1.267       .  A
O188        C190   1.266       .  A
C189        O191   1.273       .  A
C189        C424   1.493       .  S
C190        C444   1.485       .  S
C192        C504   1.489       .  S
C193        C393   1.497       .  S
C193        N194   1.367       .  A
C193        N198   1.361       .  A
N194        C195   1.361       .  A
C195        C433   1.490       .  S
C195        N196   1.355       .  A
N196        C197   1.354       .  A
C197       C1144   1.482       .  S
C197        N198   1.357       .  A
C199        C584   1.482       .  S
C199        N200   1.364       .  A
C199        N204   1.366       .  A
N200        C201   1.358       .  A
C201        C413   1.489       .  S
C201        N202   1.354       .  A
N202        C203   1.356       .  A
C203       C1113   1.487       .  S
C203        N204   1.363       .  A
Fe205       O221   2.065       .  S
Fe205       O211   2.052       .  S
Fe205       O218   2.063       .  S
Fe205       O210   2.065       .  S
Fe205       O216   1.973       .  S
Fe206       O209   2.068       .  S
Fe206       O213   2.073       .  S
Fe206       O217   2.074       .  S
Fe206       O222   2.064       .  S
Fe206       O216   1.984       .  S
Fe207       O225   2.068       .  S
Fe207       O212   2.069       .  S
Fe207       O219   2.078       .  S
Fe207       O208   2.080       .  S
Fe207       O216   1.978       .  S
O208        C215   1.272       .  A
O209        C223   1.267       .  A
O210        C215   1.270       .  A
O211        C214   1.266       .  A
O212        C224   1.272       .  A
O213        C226   1.271       .  A
C214        O219   1.270       .  A
C214        C924   1.478       .  S
C215        C884   1.492       .  S
O217        C220   1.267       .  A
O218        C220   1.267       .  A
C220        C384   1.494       .  S
O221        C226   1.270       .  A
O222        C224   1.270       .  A
C223        O225   1.270       .  A
C223        C353   1.497       .  S
C224        C344   1.480       .  S
C226        C404   1.482       .  S
C227        C324   1.486       .  S
C227        N228   1.366       .  A
C227        N232   1.361   1_556  A
N228        C229   1.364       .  A
C229        C933   1.502       .  S
C229        N230   1.358   1_556  A
N230        C231   1.352       .  A
C231        C333   1.470       .  S
C231        N232   1.355       .  A
C233        C464   1.477       .  S
C233        N234   1.363   1_556  A
C233        N238   1.361       .  A
N234        C235   1.360       .  A
C235        C364   1.479       .  S
C235        N236   1.355       .  A
N236        C237   1.354   1_554  A
C237        C964   1.467       .  S
C237        N238   1.358       .  A
Fe239       O255   2.067       .  S
Fe239       O245   2.068       .  S
Fe239       O252   2.070       .  S
Fe239       O244   2.055       .  S
Fe239       O250   1.976       .  S
Fe240       O243   2.073       .  S
Fe240       O247   2.079       .  S
Fe240       O251   2.079       .  S
Fe240       O256   2.076       .  S
Fe240       O250   1.982       .  S
Fe241       O259   2.072       .  S
Fe241       O246   2.065       .  S
Fe241       O253   2.063       .  S
Fe241       O242   2.079       .  S
Fe241       O250   1.979       .  S
O242        C249   1.269       .  A
O243        C257   1.272       .  A
O244        C249   1.267       .  A
O245        C248   1.270       .  A
O246        C258   1.268       .  A
O247        C260   1.269       .  A
C248        O253   1.270       .  A
C248        C764   1.487       .  S
C249        C713   1.490       .  S
O251        C254   1.272       .  A
O252        C254   1.270       .  A
C254        C473   1.487       .  S
O255        C260   1.268       .  A
O256        C258   1.271       .  A
C257        O259   1.269       .  A
C257        C273   1.495       .  S
C258        C304   1.489       .  S
C260        C313   1.496       .  S
C261        C564   1.485       .  S
C261        N262   1.363       .  A
C261        N266   1.358       .  A
N262        C263   1.361       .  A
C263        C293   1.483       .  S
C263        N264   1.360       .  A
N264        C265   1.357       .  A
C265        C804   1.475       .  S
C265        N266   1.356       .  A
C267        C373   1.489       .  S
C267        N268   1.365       .  A
C267        N272   1.365       .  A
N268        C269   1.361       .  A
C269        C784   1.482       .  S
C269        N270   1.355       .  A
N270        C271   1.352       .  A
C271        C284   1.473       .  S
C271        N272   1.360       .  A
C273        C274   1.421       .  A
C273        C278   1.410       .  A
C274        C275   1.402       .  A
C274       Br290   1.922       .  S
C275        C276   1.400       .  A
C275        H279   1.084       .  S
C276        C280   1.483       .  S
C276        C277   1.405       .  A
C277        C278   1.401       .  A
C277       Br289   1.918       .  S
C278        H281   1.083       .  S
C280        C282   1.403       .  A
C280        C286   1.411       .  A
C282        C283   1.403       .  A
C282        H287   1.083       .  S
C283        C284   1.408       .  A
C283       Br291   1.918       .  S
C284        C285   1.402       .  A
C285        C286   1.401       .  A
C285        H288   1.084       .  S
C286       Br292   1.920       .  S
C293        C294   1.413       .  A
C293        C298   1.404       .  A
C294        C295   1.403       .  A
C294       Br310   1.919       .  S
C295        C296   1.405       .  A
C295        H299   1.083       .  S
C296        C300   1.487       .  S
C296        C297   1.409       .  A
C297        C298   1.399       .  A
C297       Br309   1.918       .  S
C298        H301   1.084       .  S
C300        C302   1.402       .  A
C300        C306   1.408       .  A
C302        C303   1.398       .  A
C302        H307   1.084       .  S
C303        C304   1.417       .  A
C303       Br311   1.923       .  S
C304        C305   1.408       .  A
C305        C306   1.403       .  A
C305        H308   1.084       .  S
C306       Br312   1.918       .  S
C313        C314   1.417       .  A
C313        C318   1.409       .  A
C314        C315   1.405       .  A
C314       Br330   1.920       .  S
C315        C316   1.404       .  A
C315        H319   1.084       .  S
C316        C320   1.487       .  S
C316        C317   1.406       .  A
C317        C318   1.400       .  A
C317       Br329   1.919       .  S
C318        H321   1.082       .  S
C320        C322   1.405       .  A
C320        C326   1.407       .  A
C322        C323   1.404   1_655  A
C322        H327   1.083       .  S
C323        C324   1.413       .  A
C323       Br331   1.918       .  S
C324        C325   1.407       .  A
C325        C326   1.400   1_455  A
C325        H328   1.083   1_556  S
C326       Br332   1.918   1_556  S
C333        C334   1.408       .  A
C333        C338   1.402       .  A
C334        C335   1.399       .  A
C334       Br350   1.918       .  S
C335        C336   1.402       .  A
C335        H339   1.083       .  S
C336        C340   1.476       .  S
C336        C337   1.408       .  A
C337        C338   1.400       .  A
C337       Br349   1.918       .  S
C338        H341   1.083       .  S
C340        C342   1.402       .  A
C340        C346   1.405       .  A
C342        C343   1.403       .  A
C342        H347   1.084       .  S
C343        C344   1.414       .  A
C343       Br351   1.921       .  S
C344        C345   1.405       .  A
C345        C346   1.395       .  A
C345        H348   1.084       .  S
C346       Br352   1.919       .  S
C353        C354   1.421       .  A
C353        C358   1.410       .  A
C354        C355   1.403       .  A
C354       Br370   1.922       .  S
C355        C356   1.402       .  A
C355        H359   1.084       .  S
C356        C360   1.486       .  S
C356        C357   1.407       .  A
C357        C358   1.398       .  A
C357       Br369   1.920       .  S
C358        H361   1.083       .  S
C360        C362   1.403       .  A
C360        C366   1.410       .  A
C362        C363   1.398       .  A
C362        H367   1.083       .  S
C363        C364   1.412       .  A
C363       Br371   1.922       .  S
C364        C365   1.404       .  A
C365        C366   1.403       .  A
C365        H368   1.083       .  S
C366       Br372   1.917       .  S
C373        C374   1.415       .  A
C373        C378   1.407       .  A
C374        C375   1.403   1_655  A
C374       Br390   1.920       .  S
C375        C376   1.402       .  A
C375        H379   1.084       .  S
C376        C380   1.485       .  S
C376        C377   1.408       .  A
C377        C378   1.403   1_455  A
C377       Br389   1.919       .  S
C378        H381   1.083       .  S
C380        C382   1.403       .  A
C380        C386   1.406       .  A
C382        C383   1.405       .  A
C382        H387   1.084       .  S
C383        C384   1.418       .  A
C383       Br391   1.921       .  S
C384        C385   1.409       .  A
C385        C386   1.398       .  A
C385        H388   1.082       .  S
C386       Br392   1.919       .  S
C393        C394   1.424       .  A
C393        C398   1.411       .  A
C394        C395   1.399       .  A
C394       Br410   1.921       .  S
C395        C396   1.397       .  A
C395        H399   1.084       .  S
C396        C400   1.479       .  S
C396        C397   1.405       .  A
C397        C398   1.400       .  A
C397       Br409   1.918       .  S
C398        H401   1.082       .  S
C400        C402   1.402       .  A
C400        C406   1.406       .  A
C402        C403   1.401       .  A
C402        H407   1.084       .  S
C403        C404   1.413       .  A
C403       Br411   1.920       .  S
C404        C405   1.407       .  A
C405        C406   1.400       .  A
C405        H408   1.084       .  S
C406       Br412   1.919       .  S
C413        C414   1.415       .  A
C413        C418   1.407       .  A
C414        C415   1.408       .  A
C414       Br430   1.919       .  S
C415        C416   1.406       .  A
C415        H419   1.083       .  S
C416        C420   1.484       .  S
C416        C417   1.405       .  A
C417        C418   1.394       .  A
C417       Br429   1.921       .  S
C418        H421   1.084       .  S
C420        C422   1.404       .  A
C420        C426   1.405       .  A
C422        C423   1.404       .  A
C422        H427   1.083       .  S
C423        C424   1.416       .  A
C423       Br431   1.920       .  S
C424        C425   1.410       .  A
C425        C426   1.400       .  A
C425        H428   1.083       .  S
C426       Br432   1.918       .  S
C433        C434   1.417       .  A
C433        C438   1.408       .  A
C434        C435   1.407       .  A
C434       Br450   1.918       .  S
C435        C436   1.403       .  A
C435        H439   1.083       .  S
C436        C440   1.478       .  S
C436        C437   1.404       .  A
C437        C438   1.393       .  A
C437       Br449   1.921       .  S
C438        H441   1.083       .  S
C440        C442   1.399       .  A
C440        C446   1.407       .  A
C442        C443   1.398       .  A
C442        H447   1.084       .  S
C443        C444   1.417       .  A
C443       Br451   1.922       .  S
C444        C445   1.407       .  A
C445        C446   1.401       .  A
C445        H448   1.083       .  S
C446       Br452   1.918       .  S
C453        C454   1.415       .  A
C453        C458   1.405       .  A
C454        C455   1.401       .  A
C454       Br470   1.921       .  S
C455        C456   1.402       .  A
C455        H459   1.084       .  S
C456        C460   1.483       .  S
C456        C457   1.408       .  A
C457        C458   1.401       .  A
C457       Br469   1.918   1_556  S
C458        H461   1.084       .  S
C460        C462   1.403       .  A
C460        C466   1.410       .  A
C462        C463   1.401       .  A
C462        H467   1.083       .  S
C463        C464   1.410       .  A
C463       Br471   1.919       .  S
C464        C465   1.404       .  A
C465        C466   1.402       .  A
C465        H468   1.083       .  S
C466       Br472   1.919       .  S
C473        C474   1.415       .  A
C473        C478   1.406       .  A
C474        C475   1.403       .  A
C474       Br490   1.921       .  S
C475        C476   1.403       .  A
C475        H479   1.083       .  S
C476        C480   1.487       .  S
C476        C477   1.409       .  A
C477        C478   1.402       .  A
C477       Br489   1.918       .  S
C478        H481   1.083       .  S
C480        C482   1.401       .  A
C480        C486   1.406       .  A
C482        C483   1.404       .  A
C482        H487   1.083       .  S
C483        C484   1.422       .  A
C483       Br491   1.922       .  S
C484        C485   1.411   1_556  A
C485        C486   1.402   1_554  A
C485        H488   1.081       .  S
C486       Br492   1.918   1_556  S
C493        C494   1.425       .  A
C493        C498   1.414   1_556  A
C494        C495   1.405   1_655  A
C494       Br510   1.919       .  S
C495        C496   1.399       .  A
C495        H499   1.084       .  S
C496        C500   1.486       .  S
C496        C497   1.404       .  A
C497        C498   1.403   1_456  A
C497       Br509   1.918   1_556  S
C498        H501   1.082       .  S
C500        C502   1.403       .  A
C500        C506   1.407       .  A
C502        C503   1.404       .  A
C502        H507   1.084       .  S
C503        C504   1.414       .  A
C503       Br511   1.920       .  S
C504        C505   1.408       .  A
C505        C506   1.402       .  A
C505        H508   1.084       .  S
C506       Br512   1.918       .  S
C513        C514   1.422       .  A
C513        C518   1.410       .  A
C514        C515   1.403       .  A
C514       Br530   1.923       .  S
C515        C516   1.401       .  A
C515        H519   1.084       .  S
C516        C520   1.485       .  S
C516        C517   1.407       .  A
C517        C518   1.399       .  A
C517       Br529   1.920       .  S
C518        H521   1.083       .  S
C520        C522   1.404       .  A
C520        C526   1.409       .  A
C522        C523   1.405       .  A
C522        H527   1.083       .  S
C523        C524   1.412       .  A
C523       Br531   1.918       .  S
C524        C525   1.405       .  A
C525        C526   1.397       .  A
C525        H528   1.084       .  S
C526       Br532   1.920       .  S
C533        C534   1.413       .  A
C533        C538   1.407       .  A
C534        C535   1.406       .  A
C534       Br550   1.919       .  S
C535        C536   1.405       .  A
C535        H539   1.083       .  S
C536        C540   1.484       .  S
C536        C537   1.406       .  A
C537        C538   1.400       .  A
C537       Br549   1.918       .  S
C538        H541   1.083       .  S
C540        C542   1.404       .  A
C540        C546   1.407       .  A
C542        C543   1.406       .  A
C542        H547   1.083       .  S
C543        C544   1.414       .  A
C543       Br551   1.918       .  S
C544        C545   1.405       .  A
C545        C546   1.398       .  A
C545        H548   1.083       .  S
C546       Br552   1.917       .  S
C553        C554   1.420       .  A
C553        C558   1.411       .  A
C554        C555   1.403       .  A
C554       Br570   1.922       .  S
C555        C556   1.401       .  A
C555        H559   1.084       .  S
C556        C560   1.478       .  S
C556        C557   1.404       .  A
C557        C558   1.396       .  A
C557       Br569   1.920       .  S
C558        H561   1.083       .  S
C560        C562   1.400       .  A
C560        C566   1.406       .  A
C562        C563   1.399       .  A
C562        H567   1.084       .  S
C563        C564   1.417       .  A
C563       Br571   1.922       .  S
C564        C565   1.407       .  A
C565        C566   1.400       .  A
C565        H568   1.082       .  S
C566       Br572   1.918       .  S
C573        C574   1.421       .  A
C573        C578   1.409       .  A
C574        C575   1.401       .  A
C574       Br590   1.924       .  S
C575        C576   1.401       .  A
C575        H579   1.083       .  S
C576        C580   1.483       .  S
C576        C577   1.406       .  A
C577        C578   1.399       .  A
C577       Br589   1.918       .  S
C578        H581   1.083       .  S
C580        C582   1.404       .  A
C580        C586   1.407       .  A
C582        C583   1.402   1_655  A
C582        H587   1.083       .  S
C583        C584   1.411       .  A
C583       Br591   1.914       .  S
C584        C585   1.405       .  A
C585        C586   1.399   1_455  A
C585        H588   1.084       .  S
C586       Br592   1.918       .  S
C593        C594   1.416       .  A
C593        C598   1.407       .  A
C594        C595   1.392       .  A
C594       Br610   1.924       .  S
C595        C596   1.399       .  A
C595        H599   1.085       .  S
C596        C600   1.480       .  S
C596        C597   1.409       .  A
C597        C598   1.405       .  A
C597       Br609   1.917       .  S
C598        H601   1.084       .  S
C600        C602   1.403       .  A
C600        C606   1.408       .  A
C602        C603   1.401       .  A
C602        H607   1.084       .  S
C603        C604   1.412       .  A
C603       Br611   1.920       .  S
C604        C605   1.402       .  A
C605        C606   1.396       .  A
C605        H608   1.084       .  S
C606       Br612   1.919       .  S
C613        C614   1.413       .  A
C613        C618   1.406       .  A
C614        C615   1.397       .  A
C614       Br630   1.920       .  S
C615        C616   1.400       .  A
C615        H619   1.083       .  S
C616        C620   1.476       .  S
C616        C617   1.407       .  A
C617        C618   1.401       .  A
C617       Br629   1.918       .  S
C618        H621   1.083       .  S
C620        C622   1.403       .  A
C620        C626   1.404       .  A
C622        C623   1.405       .  A
C622        H627   1.083       .  S
C623        C624   1.415       .  A
C623       Br631   1.919       .  S
C624        C625   1.407       .  A
C625        C626   1.393       .  A
C625        H628   1.083       .  S
C626       Br632   1.921       .  S
C633        C634   1.415       .  A
C633        C638   1.407       .  A
C634        C635   1.402       .  A
C634       Br650   1.918       .  S
C635        C636   1.401       .  A
C635        H639   1.084       .  S
C636        C640   1.481       .  S
C636        C637   1.406       .  A
C637        C638   1.400       .  A
C637       Br649   1.918       .  S
C638        H641   1.084       .  S
C640        C642   1.404       .  A
C640        C646   1.406       .  A
C642        C643   1.406       .  A
C642        H647   1.083       .  S
C643        C644   1.413       .  A
C643       Br651   1.917       .  S
C644        C645   1.405       .  A
C645        C646   1.396       .  A
C645        H648   1.084       .  S
C646       Br652   1.921       .  S
C653        C654   1.417       .  A
C653        C658   1.409       .  A
C654        C655   1.404       .  A
C654       Br670   1.920       .  S
C655        C656   1.402       .  A
C655        H659   1.083       .  S
C656        C660   1.483       .  S
C656        C657   1.406       .  A
C657        C658   1.400       .  A
C657       Br669   1.919       .  S
C658        H661   1.082       .  S
C660        C662   1.404       .  A
C660        C666   1.407       .  A
C662        C663   1.408       .  A
C662        H667   1.083       .  S
C663        C664   1.414       .  A
C663       Br671   1.919       .  S
C664        C665   1.405       .  A
C665        C666   1.397       .  A
C665        H668   1.083       .  S
C666       Br672   1.921       .  S
C673        C674   1.415       .  A
C673        C678   1.408       .  A
C674        C675   1.405       .  A
C674       Br690   1.919       .  S
C675        C676   1.403       .  A
C675        H679   1.084       .  S
C676        C680   1.483       .  S
C676        C677   1.407       .  A
C677        C678   1.400       .  A
C677       Br689   1.919       .  S
C678        H681   1.083       .  S
C680        C682   1.405       .  A
C680        C686   1.405       .  A
C682        C683   1.408       .  A
C682        H687   1.083       .  S
C683        C684   1.415       .  A
C683       Br691   1.919       .  S
C684        C685   1.406       .  A
C685        C686   1.396       .  A
C685        H688   1.083       .  S
C686       Br692   1.919       .  S
C693        C694   1.416       .  A
C693        C698   1.409       .  A
C694        C695   1.406       .  A
C694       Br710   1.919       .  S
C695        C696   1.403       .  A
C695        H699   1.084       .  S
C696        C700   1.478       .  S
C696        C697   1.404       .  A
C697        C698   1.394       .  A
C697       Br709   1.921       .  S
C698        H701   1.083       .  S
C700        C702   1.401       .  A
C700        C706   1.407       .  A
C702        C703   1.400       .  A
C702        H707   1.084       .  S
C703        C704   1.414       .  A
C703       Br711   1.921       .  S
C704        C705   1.405       .  A
C705        C706   1.399       .  A
C705        H708   1.084       .  S
C706       Br712   1.918       .  S
C713        C714   1.416       .  A
C713        C718   1.409       .  A
C714        C715   1.407       .  A
C714       Br730   1.919       .  S
C715        C716   1.404       .  A
C715        H719   1.083       .  S
C716        C720   1.478       .  S
C716        C717   1.403       .  A
C717        C718   1.393       .  A
C717       Br729   1.921       .  S
C718        H721   1.083       .  S
C720        C722   1.402       .  A
C720        C726   1.408       .  A
C722        C723   1.400       .  A
C722        H727   1.083       .  S
C723        C724   1.408       .  A
C723       Br731   1.915   1_556  S
C724        C725   1.404       .  A
C725        C726   1.400       .  A
C725        H728   1.084       .  S
C726       Br732   1.918       .  S
C733        C734   1.412   1_565  A
C733        C738   1.406   1_556  A
C734        C735   1.400       .  A
C734       Br750   1.916   1_545  S
C735        C736   1.402       .  A
C735        H739   1.084       .  S
C736        C740   1.479       .  S
C736        C737   1.406       .  A
C737        C738   1.400   1_546  A
C737       Br749   1.918   1_556  S
C738        H741   1.083       .  S
C740        C742   1.402       .  A
C740        C746   1.403       .  A
C742        C743   1.403       .  A
C742        H747   1.084       .  S
C743        C744   1.419       .  A
C743       Br751   1.921       .  S
C744        C745   1.411       .  A
C745        C746   1.397       .  A
C745        H748   1.082       .  S
C746       Br752   1.919   1_556  S
C753        C754   1.409       .  A
C753        C758   1.402       .  A
C754        C755   1.401       .  A
C754       Br770   1.914       .  S
C755        C756   1.402       .  A
C755        H759   1.084       .  S
C756        C760   1.476       .  S
C756        C757   1.409       .  A
C757        C758   1.396       .  A
C757       Br769   1.921       .  S
C758        H761   1.084       .  S
C760        C762   1.401       .  A
C760        C766   1.405       .  A
C762        C763   1.399       .  A
C762        H767   1.085       .  S
C763        C764   1.415       .  A
C763       Br771   1.919       .  S
C764        C765   1.410       .  A
C765        C766   1.397       .  A
C765        H768   1.084       .  S
C766       Br772   1.919       .  S
C773        C774   1.413       .  A
C773        C778   1.407       .  A
C774        C775   1.404       .  A
C774       Br790   1.920       .  S
C775        C776   1.404       .  A
C775        H779   1.083       .  S
C776        C780   1.478       .  S
C776        C777   1.404       .  A
C777        C778   1.397       .  A
C777       Br789   1.919       .  S
C778        H781   1.083       .  S
C780        C782   1.398       .  A
C780        C786   1.408       .  A
C782        C783   1.394       .  A
C782        H787   1.083       .  S
C783        C784   1.414       .  A
C783       Br791   1.923       .  S
C784        C785   1.408       .  A
C785        C786   1.406       .  A
C785        H788   1.083       .  S
C786       Br792   1.916       .  S
C793        C794   1.417       .  A
C793        C798   1.409       .  A
C794        C795   1.407       .  A
C794       Br810   1.920       .  S
C795        C796   1.403       .  A
C795        H799   1.083       .  S
C796        C800   1.480       .  S
C796        C797   1.405       .  A
C797        C798   1.394       .  A
C797       Br809   1.921       .  S
C798        H801   1.083       .  S
C800        C802   1.401       .  A
C800        C806   1.409       .  A
C802        C803   1.399       .  A
C802        H807   1.083       .  S
C803        C804   1.409       .  A
C803       Br811   1.919       .  S
C804        C805   1.404       .  A
C805        C806   1.402       .  A
C805        H808   1.083       .  S
C806       Br812   1.918       .  S
C813        C814   1.419       .  A
C813        C818   1.412       .  A
C814        C815   1.404       .  A
C814       Br830   1.921       .  S
C815        C816   1.401       .  A
C815        H819   1.084       .  S
C816        C820   1.482       .  S
C816        C817   1.404       .  A
C817        C818   1.399       .  A
C817       Br829   1.918       .  S
C818        H821   1.084       .  S
C820        C822   1.401       .  A
C820        C826   1.408       .  A
C822        C823   1.398       .  A
C822        H827   1.083       .  S
C823        C824   1.409       .  A
C823       Br831   1.920       .  S
C824        C825   1.405       .  A
C825        C826   1.405       .  A
C825        H828   1.083       .  S
C826       Br832   1.917       .  S
C833        C834   1.410       .  A
C833        C838   1.403       .  A
C834        C835   1.400       .  A
C834       Br850   1.915       .  S
C835        C836   1.402       .  A
C835        H839   1.083       .  S
C836        C840   1.480       .  S
C836        C837   1.410       .  A
C837        C838   1.399       .  A
C837       Br849   1.920       .  S
C838        H841   1.083       .  S
C840        C842   1.399       .  A
C840        C846   1.407       .  A
C842        C843   1.396       .  A
C842        H847   1.084       .  S
C843        C844   1.417       .  A
C843       Br851   1.923       .  S
C844        C845   1.408       .  A
C845        C846   1.402       .  A
C845        H848   1.084       .  S
C846       Br852   1.918       .  S
C853        C854   1.418       .  A
C853        C858   1.408       .  A
C854        C855   1.400       .  A
C854       Br870   1.922       .  S
C855        C856   1.402       .  A
C855        H859   1.084       .  S
C856        C860   1.485       .  S
C856        C857   1.408       .  A
C857        C858   1.399       .  A
C857       Br869   1.919       .  S
C858        H861   1.083       .  S
C860        C862   1.402       .  A
C860        C866   1.409       .  A
C862        C863   1.399   1_565  A
C862        H867   1.083       .  S
C863        C864   1.416       .  A
C863       Br871   1.922       .  S
C864        C865   1.405       .  A
C865        C866   1.401   1_545  A
C865        H868   1.083       .  S
C866       Br872   1.919       .  S
C873        C874   1.419       .  A
C873        C878   1.409       .  A
C874        C875   1.397       .  A
C874       Br890   1.925       .  S
C875        C876   1.399       .  A
C875        H879   1.083       .  S
C876        C880   1.484       .  S
C876        C877   1.408       .  A
C877        C878   1.407       .  A
C877       Br889   1.916       .  S
C878        H881   1.082       .  S
C880        C882   1.403       .  A
C880        C886   1.406       .  A
C882        C883   1.403       .  A
C882        H887   1.083       .  S
C883        C884   1.416       .  A
C883       Br891   1.920       .  S
C884        C885   1.409       .  A
C885        C886   1.402       .  A
C885        H888   1.083       .  S
C886       Br892   1.918       .  S
C893        C894   1.416       .  A
C893        C898   1.407       .  A
C894        C895   1.402       .  A
C894       Br910   1.920       .  S
C895        C896   1.402       .  A
C895        H899   1.084       .  S
C896        C900   1.482       .  S
C896        C897   1.407       .  A
C897        C898   1.399       .  A
C897       Br909   1.918       .  S
C898        H901   1.084       .  S
C900        C902   1.401       .  A
C900        C906   1.406       .  A
C902        C903   1.401       .  A
C902        H907   1.083       .  S
C903        C904   1.417       .  A
C903       Br911   1.922       .  S
C904        C905   1.409       .  A
C905        C906   1.401       .  A
C905        H908   1.083       .  S
C906       Br912   1.919       .  S
C913        C914   1.414       .  A
C913        C918   1.407       .  A
C914        C915   1.399       .  A
C914       Br930   1.922       .  S
C915        C916   1.402       .  A
C915        H919   1.083       .  S
C916        C920   1.478       .  S
C916        C917   1.406       .  A
C917        C918   1.400       .  A
C917       Br929   1.918       .  S
C918        H921   1.082       .  S
C920        C922   1.398       .  A
C920        C926   1.409       .  A
C922        C923   1.392       .  A
C922        H927   1.085       .  S
C923        C924   1.413       .  A
C923       Br931   1.924       .  S
C924        C925   1.406       .  A
C925        C926   1.406       .  A
C925        H928   1.084       .  S
C926       Br932   1.916       .  S
C933        C934   1.421       .  A
C933        C938   1.413       .  A
C934        C935   1.406       .  A
C934       Br950   1.919       .  S
C935        C936   1.403       .  A
C935        H939   1.083       .  S
C936        C940   1.485       .  S
C936        C937   1.405       .  A
C937        C938   1.395       .  A
C937       Br949   1.922       .  S
C938        H941   1.082   1_556  S
C940        C942   1.405       .  A
C940        C946   1.408       .  A
C942        C943   1.401       .  A
C942        H947   1.084       .  S
C943        C944   1.412       .  A
C943       Br951   1.920       .  S
C944        C945   1.406       .  A
C945        C946   1.399       .  A
C945        H948   1.084       .  S
C946       Br952   1.920       .  S
C953        C954   1.423       .  A
C953        C958   1.409       .  A
C954        C955   1.402       .  A
C954       Br970   1.923       .  S
C955        C956   1.399       .  A
C955        H959   1.085       .  S
C956        C960   1.477       .  S
C956        C957   1.404       .  A
C957        C958   1.396       .  A
C957       Br969   1.919       .  S
C958        H961   1.084       .  S
C960        C962   1.404       .  A
C960        C966   1.408       .  A
C962        C963   1.401       .  A
C962        H967   1.083       .  S
C963        C964   1.407       .  A
C963       Br971   1.917       .  S
C964        C965   1.400       .  A
C965        C966   1.396       .  A
C965        H968   1.084       .  S
C966       Br972   1.920       .  S
C973        C974   1.409       .  A
C973        C978   1.402       .  A
C974        C975   1.401       .  A
C974       Br990   1.919       .  S
C975        C976   1.405       .  A
C975        H979   1.083       .  S
C976        C980   1.478       .  S
C976        C977   1.410       .  A
C977        C978   1.394       .  A
C977       Br989   1.922       .  S
C978        H981   1.084       .  S
C980        C982   1.402       .  A
C980        C986   1.408       .  A
C982        C983   1.399       .  A
C982        H987   1.083       .  S
C983        C984   1.412       .  A
C983       Br991   1.920       .  S
C984        C985   1.405       .  A
C985        C986   1.398       .  A
C985        H988   1.083       .  S
C986       Br992   1.921       .  S
C993        C994   1.417       .  A
C993        C998   1.408       .  A
C994        C995   1.404       .  A
C994      Br1010   1.920       .  S
C995        C996   1.402       .  A
C995        H999   1.083       .  S
C996       C1000   1.478       .  S
C996        C997   1.405       .  A
C997        C998   1.397       .  A
C997      Br1009   1.921       .  S
C998       H1001   1.083       .  S
C1000      C1002   1.401       .  A
C1000      C1006   1.408       .  A
C1002      C1003   1.399       .  A
C1002      H1007   1.083       .  S
C1003      C1004   1.412       .  A
C1003     Br1011   1.921       .  S
C1004      C1005   1.406       .  A
C1005      C1006   1.401       .  A
C1005      H1008   1.083       .  S
C1006     Br1012   1.918       .  S
C1013      C1014   1.413       .  A
C1013      C1018   1.405       .  A
C1014      C1015   1.401       .  A
C1014     Br1030   1.919       .  S
C1015      C1016   1.402       .  A
C1015      H1019   1.084       .  S
C1016      C1020   1.477       .  S
C1016      C1017   1.407       .  A
C1017      C1018   1.398       .  A
C1017     Br1029   1.920       .  S
C1018      H1021   1.084       .  S
C1020      C1022   1.400       .  A
C1020      C1026   1.404       .  A
C1022      C1023   1.402   1_556  A
C1022      H1027   1.084   1_556  S
C1023      C1024   1.420   1_554  A
C1023     Br1031   1.922       .  S
C1024      C1025   1.411       .  A
C1025      C1026   1.396       .  A
C1025      H1028   1.083       .  S
C1026     Br1032   1.920       .  S
C1033      C1034   1.417       .  A
C1033      C1038   1.407   1_556  A
C1034      C1035   1.401       .  A
C1034     Br1050   1.921       .  S
C1035      C1036   1.401       .  A
C1035      H1039   1.084       .  S
C1036      C1040   1.483       .  S
C1036      C1037   1.408       .  A
C1037      C1038   1.401   1_556  A
C1037     Br1049   1.918   1_556  S
C1038      H1041   1.084       .  S
C1040      C1042   1.400       .  A
C1040      C1046   1.410       .  A
C1042      C1043   1.398       .  A
C1042      H1047   1.084       .  S
C1043      C1044   1.412       .  A
C1043     Br1051   1.918       .  S
C1044      C1045   1.405       .  A
C1045      C1046   1.404       .  A
C1045      H1048   1.084       .  S
C1046     Br1052   1.918       .  S
C1053      C1054   1.417       .  A
C1053      C1058   1.409       .  A
C1054      C1055   1.401       .  A
C1054     Br1070   1.922       .  S
C1055      C1056   1.400       .  A
C1055      H1059   1.084       .  S
C1056      C1060   1.482       .  S
C1056      C1057   1.406       .  A
C1057      C1058   1.403       .  A
C1057     Br1069   1.918       .  S
C1058      H1061   1.084       .  S
C1060      C1062   1.400       .  A
C1060      C1066   1.408       .  A
C1062      C1063   1.397       .  A
C1062      H1067   1.083       .  S
C1063      C1064   1.411       .  A
C1063     Br1071   1.920   1_556  S
C1064      C1065   1.407       .  A
C1065      C1066   1.406       .  A
C1065      H1068   1.083       .  S
C1066     Br1072   1.917       .  S
C1073      C1074   1.421       .  A
C1073      C1078   1.409       .  A
C1074      C1075   1.404       .  A
C1074     Br1090   1.921       .  S
C1075      C1076   1.401       .  A
C1075      H1079   1.089       .  S
C1076      C1080   1.485       .  S
C1076      C1077   1.406       .  A
C1077      C1078   1.399       .  A
C1077     Br1089   1.917       .  S
C1078      H1081   1.088       .  S
C1080      C1082   1.400       .  A
C1080      C1086   1.406       .  A
C1082      C1083   1.403   1_565  A
C1082      H1087   1.083       .  S
C1083      C1084   1.421       .  A
C1083     Br1091   1.922       .  S
C1084      C1085   1.409   1_556  A
C1085      C1086   1.402   1_544  A
C1085      H1088   1.083       .  S
C1086     Br1092   1.917   1_556  S
C1093      C1094   1.417       .  A
C1093      C1098   1.407       .  A
C1094      C1095   1.398       .  A
C1094     Br1110   1.922   1_556  S
C1095      C1096   1.401       .  A
C1095      H1099   1.084       .  S
C1096      C1100   1.478       .  S
C1096      C1097   1.406       .  A
C1097      C1098   1.398       .  A
C1097     Br1109   1.919       .  S
C1098      H1101   1.083       .  S
C1100      C1102   1.402       .  A
C1100      C1106   1.410       .  A
C1102      C1103   1.394       .  A
C1102      H1107   1.084       .  S
C1103      C1104   1.408       .  A
C1103     Br1111   1.918       .  S
C1104      C1105   1.402       .  A
C1105      C1106   1.401       .  A
C1105      H1108   1.084       .  S
C1106     Br1112   1.917       .  S
C1113      C1114   1.414       .  A
C1113      C1118   1.407       .  A
C1114      C1115   1.406       .  A
C1114     Br1130   1.913       .  S
C1115      C1116   1.403       .  A
C1115      H1119   1.084       .  S
C1116      C1120   1.479       .  S
C1116      C1117   1.405       .  A
C1117      C1118   1.394       .  A
C1117     Br1129   1.921       .  S
C1118      H1121   1.084       .  S
C1120      C1122   1.400       .  A
C1120      C1126   1.406       .  A
C1122      C1123   1.402       .  A
C1122      H1127   1.084       .  S
C1123      C1124   1.418       .  A
C1123     Br1131   1.921       .  S
C1124      C1125   1.407       .  A
C1125      C1126   1.398       .  A
C1125      H1128   1.084       .  S
C1126     Br1132   1.919       .  S
C1133      C1134   1.416       .  A
C1133      C1138   1.409       .  A
C1134      C1135   1.396       .  A
C1134     Br1150   1.922       .  S
C1135      C1136   1.399       .  A
C1135      H1139   1.084       .  S
C1136      C1140   1.476       .  S
C1136      C1137   1.406       .  A
C1137      C1138   1.401       .  A
C1137     Br1149   1.918       .  S
C1138      H1141   1.084       .  S
C1140      C1142   1.402       .  A
C1140      C1146   1.406       .  A
C1142      C1143   1.403       .  A
C1142      H1147   1.083       .  S
C1143      C1144   1.414       .  A
C1143     Br1151   1.918       .  S
C1144      C1145   1.406       .  A
C1145      C1146   1.393       .  A
C1145      H1148   1.084       .  S
C1146     Br1152   1.921       .  S
C1153      C1154   1.417       .  A
C1153      C1158   1.407       .  A
C1154      C1155   1.398       .  A
C1154     Br1170   1.922       .  S
C1155      C1156   1.400       .  A
C1155      H1159   1.083       .  S
C1156      C1160   1.479       .  S
C1156      C1157   1.406       .  A
C1157      C1158   1.403       .  A
C1157     Br1169   1.916       .  S
C1158      H1161   1.083       .  S
C1160      C1162   1.403       .  A
C1160      C1166   1.406       .  A
C1162      C1163   1.403       .  A
C1162      H1167   1.083       .  S
C1163      C1164   1.413       .  A
C1163     Br1171   1.920       .  S
C1164      C1165   1.406       .  A
C1165      C1166   1.398       .  A
C1165      H1168   1.083       .  S
C1166     Br1172   1.919       .  S
C1173      C1174   1.419       .  A
C1173      C1178   1.411       .  A
C1174      C1175   1.401       .  A
C1174     Br1190   1.922       .  S
C1175      C1176   1.400       .  A
C1175      H1179   1.084       .  S
C1176      C1180   1.481       .  S
C1176      C1177   1.405       .  A
C1177      C1178   1.401       .  A
C1177     Br1189   1.918       .  S
C1178      H1181   1.083       .  S
C1180      C1182   1.404       .  A
C1180      C1186   1.408       .  A
C1182      C1183   1.404       .  A
C1182      H1187   1.083       .  S
C1183      C1184   1.410       .  A
C1183     Br1191   1.917       .  S
C1184      C1185   1.403       .  A
C1185      C1186   1.398       .  A
C1185      H1188   1.084       .  S
C1186     Br1192   1.919       .  S
C1193      C1194   1.411       .  A
C1193      C1198   1.406       .  A
C1194      C1195   1.403       .  A
C1194     Br1210   1.918       .  S
C1195      C1196   1.405       .  A
C1195      H1199   1.083       .  S
C1196      C1200   1.486       .  S
C1196      C1197   1.409       .  A
C1197      C1198   1.402       .  A
C1197     Br1209   1.919       .  S
C1198      H1201   1.083       .  S
C1200      C1202   1.403       .  A
C1200      C1206   1.411       .  A
C1202      C1203   1.400       .  A
C1202      H1207   1.084       .  S
C1203      C1204   1.409       .  A
C1203     Br1211   1.919       .  S
C1204      C1205   1.403       .  A
C1205      C1206   1.403       .  A
C1205      H1208   1.084       .  S
C1206     Br1212   1.918       .  S
C1213      C1214   1.409       .  A
C1213      C1218   1.405       .  A
C1214      C1215   1.405       .  A
C1214     Br1230   1.918       .  S
C1215      C1216   1.409       .  A
C1215      H1219   1.083       .  S
C1216      C1220   1.498       .  S
C1216      C1217   1.415       .  A
C1217      C1218   1.400       .  A
C1217     Br1229   1.922       .  S
C1218      H1221   1.084       .  S
C1220      C1222   1.405       .  A
C1220      C1226   1.416       .  A
C1222      C1223   1.401       .  A
C1222      H1227   1.084       .  S
C1223      C1224   1.414   1_545  A
C1223     Br1231   1.922       .  S
C1224      C1225   1.404       .  A
C1225      C1226   1.404   1_565  A
C1225      H1228   1.084       .  S
C1226     Br1232   1.920       .  S
