geometry optimzed in LAMMPS
_audit_creation_date              2020-11-30 
_audit_creation_method            'lammps2cif' 
_symmetry_space_group_name_H-M    'P1' 
_symmetry_Int_Tables_number       1 
_symmetry_cell_setting            triclinic 
loop_ 
_symmetry_equiv_pos_as_xyz 
  x,y,z 
_cell_length_a                    68.68154625 
_cell_length_b                    68.62767754747338 
_cell_length_c                    34.82207350806837 
_cell_angle_alpha                 90.19967659430573 
_cell_angle_beta                  89.96585027500895 
_cell_angle_gamma                 90.01555003159889 
loop_ 
_atom_site_label 
_atom_site_type_symbol 
_atom_site_fract_x 
_atom_site_fract_y 
_atom_site_fract_z 
_atom_site_charge 
Zn1        Zn  0.61688765  0.89621698  0.16428761     1.49700
Zn2        Zn  0.65210099  0.89044707  0.22487737     1.49400
Zn3        Zn  0.61416056  0.86322296  0.22790582     1.49100
Zn4        Zn  0.64465151  0.85951815  0.16031160     1.49500
O5          O  0.63183023  0.87748146  0.19453589    -1.84200
O6          O  0.62284017  0.92347149  0.18293683    -0.74800
O7          O  0.64980192  0.88349253  0.28099089    -0.74600
O8          O  0.58594347  0.87048998  0.21825140    -0.74100
O9          O  0.64726511  0.91912384  0.22394265    -0.74800
O10         O  0.58782682  0.89217755  0.17124416    -0.74400
O11         O  0.62073759  0.86920132  0.28278257    -0.75000
O12         O  0.63952583  0.83191070  0.17452661    -0.74400
O13         O  0.67952236  0.88563310  0.20431287    -0.75100
O14         O  0.61714294  0.83408521  0.22036681    -0.74500
O15         O  0.67332882  0.86378647  0.15897012    -0.75000
O16         O  0.63630215  0.86385864  0.10653822    -0.74900
O17         O  0.62250244  0.89312907  0.10731879    -0.74700
C18         C  0.63506496  0.93015600  0.20720319     0.77100
C19         C  0.63549968  0.87646893  0.29977045     0.77600
C20         C  0.57776997  0.88186732  0.19428577     0.76500
C21         C  0.62807734  0.82393349  0.19849991     0.76900
C22         C  0.68524292  0.87464690  0.17693549     0.78100
C23         C  0.62917457  0.87842889  0.08903332     0.77100
Zn24       Zn  0.61147792  0.88992781  0.72889542     1.49700
Zn25       Zn  0.64307475  0.89843943  0.66516439     1.49400
Zn26       Zn  0.64848890  0.86240399  0.72378869     1.49100
Zn27       Zn  0.61526229  0.86094733  0.65962237     1.49500
O28         O  0.62976312  0.87786508  0.69421539    -1.84200
O29         O  0.61482688  0.91873618  0.73013337    -0.74800
O30         O  0.67192610  0.89400779  0.66740021    -0.74600
O31         O  0.64522906  0.86730275  0.78121545    -0.74100
O32         O  0.63714798  0.92563627  0.68619165    -0.74800
O33         O  0.61630753  0.88177000  0.78247961    -0.74400
O34         O  0.67590623  0.86843762  0.70568553    -0.75000
O35         O  0.62201694  0.83277011  0.66852750    -0.74400
O36         O  0.63705561  0.89624854  0.60827958    -0.75100
O37         O  0.64433263  0.83347519  0.71460448    -0.74500
O38         O  0.62208905  0.86754334  0.60553944    -0.75000
O39         O  0.58598557  0.86400820  0.66546906    -0.74900
O40         O  0.58385743  0.88396203  0.71547638    -0.74700
C41         C  0.62552216  0.93100100  0.71281479     0.77100
C42         C  0.68279607  0.88123662  0.68289928     0.77600
C43         C  0.63075928  0.87428681  0.79974934     0.76500
C44         C  0.63356623  0.82400358  0.69128332     0.76900
C45         C  0.62995333  0.88208370  0.58902902     0.78100
C46         C  0.57582116  0.87363058  0.68957228     0.77100
Zn47       Zn  0.89239728  0.89716945  0.02403682     1.49700
Zn48       Zn  0.86200091  0.90401734  0.09118813     1.49400
Zn49       Zn  0.85616853  0.86877898  0.02990605     1.49100
Zn50       Zn  0.89046779  0.86711492  0.09139363     1.49500
O51         O  0.87503851  0.88424441  0.05927631    -1.84200
O52         O  0.88822165  0.92571166  0.02501190    -0.74800
O53         O  0.83313995  0.89898621  0.09012455    -0.74600
O54         O  0.85856998  0.87399722  0.97236153    -0.74100
O55         O  0.86706061  0.93173916  0.07175300    -0.74800
O56         O  0.88680880  0.88969978  0.97026619    -0.74400
O57         O  0.82899977  0.87416303  0.04964167    -0.75000
O58         O  0.88512836  0.83886467  0.07961839    -0.74400
O59         O  0.86905493  0.90077777  0.14759327    -0.75100
O60         O  0.86085984  0.83992062  0.03755877    -0.74500
O61         O  0.88448191  0.87229672  0.14661930    -0.75000
O62         O  0.91914069  0.87130773  0.08382171    -0.74900
O63         O  0.92039433  0.89168484  0.03462359    -0.74700
C64         C  0.87775465  0.93755169  0.04404155     0.77100
C65         C  0.82224134  0.88638972  0.07389729     0.77600
C66         C  0.87248536  0.88170675  0.95338332     0.76500
C67         C  0.87290058  0.83030907  0.05787137     0.76900
C68         C  0.87669032  0.88634144  0.16503568     0.78100
C69         C  0.92882825  0.88117732  0.05956471     0.77100
Zn70       Zn  0.85231141  0.88591304  0.52855720     1.49700
Zn71       Zn  0.88845868  0.89175655  0.58636224     1.49400
Zn72       Zn  0.86030897  0.85582799  0.59538722     1.49100
Zn73       Zn  0.88871229  0.85702624  0.52469067     1.49500
O74         O  0.87252542  0.87277262  0.55851861    -1.84200
O75         O  0.85728771  0.91466621  0.52946720    -0.74800
O76         O  0.88321535  0.89058344  0.64382524    -0.74600
O77         O  0.83176063  0.86061202  0.59710490    -0.74100
O78         O  0.88339805  0.91899538  0.56620502    -0.74800
O79         O  0.82509499  0.88125503  0.55005834    -0.74400
O80         O  0.86930436  0.86147372  0.64855202    -0.75000
O81         O  0.88303740  0.82813596  0.53105834    -0.74400
O82         O  0.91701920  0.88570120  0.57871365    -0.75100
O83         O  0.86442461  0.82767151  0.58318179    -0.74500
O84         O  0.91735875  0.86205951  0.53487232    -0.75000
O85         O  0.88296927  0.86395086  0.47006934    -0.74900
O86         O  0.85432879  0.87902784  0.47206405    -0.74700
C87         C  0.87028878  0.92569208  0.54390921     0.77100
C88         C  0.87657446  0.87661257  0.66407255     0.77600
C89         C  0.81966508  0.87094400  0.57854010     0.76500
C90         C  0.87332260  0.81882316  0.55624833     0.76900
C91         C  0.92628089  0.87378041  0.55729355     0.78100
C92         C  0.86856207  0.87186139  0.45316894     0.77100
Zn93       Zn  0.85831690  0.09812941  0.40440745     1.49700
Zn94       Zn  0.85248309  0.13406226  0.46339963     1.49400
Zn95       Zn  0.88879792  0.10577643  0.47050404     1.49100
Zn96       Zn  0.88710188  0.13470608  0.40113870     1.49500
O97         O  0.87146135  0.11830044  0.43466379    -1.84200
O98         O  0.82965081  0.10276077  0.40595289    -0.74800
O99         O  0.85541773  0.12966991  0.52103976    -0.74600
O100        O  0.88358858  0.07736285  0.47289563    -0.74100
O101        O  0.82486715  0.12781906  0.44542978    -0.74800
O102        O  0.86345079  0.07077192  0.42481102    -0.74400
O103        O  0.88437128  0.11529791  0.52383087    -0.75000
O104        O  0.91597927  0.13073623  0.40908729    -0.74400
O105        O  0.85735040  0.16290683  0.45386764    -0.75100
O106        O  0.91682804  0.10922804  0.45642499    -0.74500
O107        O  0.88085889  0.16295410  0.40994531    -0.75000
O108        O  0.88160121  0.12826418  0.34610587    -0.74900
O109        O  0.86469295  0.10061426  0.34800824    -0.74700
C110        C  0.81836456  0.11503388  0.42196970     0.77100
C111        C  0.86978679  0.12309767  0.54033501     0.77600
C112        C  0.87352464  0.06528829  0.45359025     0.76500
C113        C  0.92547865  0.11974510  0.43172554     0.76900
C114        C  0.86895289  0.17202681  0.43163083     0.78100
C115        C  0.87304452  0.11417490  0.32926317     0.77100
Zn116      Zn  0.88375340  0.14444258  0.97107317     1.49700
Zn117      Zn  0.85391469  0.14666483  0.90189600     1.49400
Zn118      Zn  0.88337951  0.11073488  0.90683084     1.49100
Zn119      Zn  0.84811318  0.11450621  0.96603121     1.49500
O120        O  0.86738913  0.12906868  0.93646495    -1.84200
O121        O  0.87923292  0.17328054  0.96443255    -0.74800
O122        O  0.86094982  0.14094240  0.84715767    -0.74600
O123        O  0.91185582  0.11617895  0.91595980    -0.74100
O124        O  0.85985051  0.17472817  0.91355260    -0.74800
O125        O  0.91234215  0.13937496  0.96065487    -0.74400
O126        O  0.87841402  0.11371843  0.84959784    -0.75000
O127        O  0.85348059  0.08603338  0.96320146    -0.74400
O128        O  0.82501004  0.14296363  0.90511160    -0.75100
O129        O  0.87875928  0.08283810  0.92401440    -0.74500
O130        O  0.82069648  0.11905404  0.94712049    -0.75000
O131        O  0.85054147  0.12019460  0.02252936    -0.74900
O132        O  0.87766227  0.13784984  0.02610214    -0.74700
C133        C  0.86976965  0.18309107  0.93972047     0.77100
C134        C  0.86989003  0.12704942  0.83043670     0.77600
C135        C  0.92118715  0.12775041  0.93794746     0.76500
C136        C  0.86635434  0.07551501  0.94709945     0.76900
C137        C  0.81395543  0.13114074  0.92284994     0.78100
C138        C  0.86380330  0.12856494  0.04211830     0.77100
Zn139      Zn  0.61106480  0.13973342  0.34916742     1.49700
Zn140      Zn  0.60856232  0.10869086  0.28302981     1.49400
Zn141      Zn  0.64597876  0.13582750  0.28716917     1.49100
Zn142      Zn  0.63827192  0.10217825  0.34975570     1.49500
O143        O  0.62612845  0.12188220  0.31736340    -1.84200
O144        O  0.58173353  0.13658056  0.34046133    -0.74800
O145        O  0.61347783  0.11644864  0.22946932    -0.74600
O146        O  0.64288856  0.16508123  0.29505629    -0.74100
O147        O  0.58062144  0.11392776  0.29489116    -0.74800
O148        O  0.61928518  0.16757401  0.33861186    -0.74400
O149        O  0.64264562  0.13041739  0.22979975    -0.75000
O150        O  0.66675921  0.10732833  0.35182536    -0.74400
O151        O  0.61333557  0.08015953  0.28255234    -0.75100
O152        O  0.67330675  0.12872138  0.30571082    -0.74500
O153        O  0.63444096  0.07466711  0.32944055    -0.75000
O154        O  0.62992045  0.10467646  0.40479480    -0.74900
O155        O  0.61635349  0.13408173  0.40479199    -0.74700
C156        C  0.57205839  0.12551004  0.31793354     0.77100
C157        C  0.62797853  0.12354817  0.21172770     0.77600
C158        C  0.63194416  0.17540416  0.31667427     0.76500
C159        C  0.67876798  0.11780757  0.33330632     0.76900
C160        C  0.62415217  0.06862836  0.30138527     0.78100
C161        C  0.62306499  0.11937040  0.42268145     0.77100
Zn162      Zn  0.64192665  0.11041391  0.78741510     1.49700
Zn163      Zn  0.60670713  0.10496336  0.84744679     1.49400
Zn164      Zn  0.63405648  0.14204429  0.85125995     1.49100
Zn165      Zn  0.60470158  0.13823838  0.78281150     1.49500
O166        O  0.62171169  0.12374086  0.81706553    -1.84200
O167        O  0.63744960  0.08170441  0.78963585    -0.74800
O168        O  0.61242576  0.10823046  0.90456985    -0.74600
O169        O  0.66280320  0.13920268  0.85034254    -0.74100
O170        O  0.61253582  0.07729929  0.82946722    -0.74800
O171        O  0.66904285  0.11580951  0.80803541    -0.74400
O172        O  0.62689751  0.13716589  0.90544944    -0.75000
O173        O  0.60718507  0.16756085  0.78969282    -0.74400
O174        O  0.57783287  0.10931178  0.83957112    -0.75100
O175        O  0.62770613  0.16945436  0.83862603    -0.74500
O176        O  0.57683119  0.13071911  0.79179717    -0.75000
O177        O  0.61149722  0.13226496  0.72826980    -0.74900
O178        O  0.63999186  0.11698720  0.73093827    -0.74700
C179        C  0.62523164  0.07058751  0.80613192     0.77100
C180        C  0.61972395  0.12262134  0.92292452     0.77600
C181        C  0.67475135  0.12799217  0.83334097     0.76500
C182        C  0.61705027  0.17760352  0.81358689     0.76900
C183        C  0.56828513  0.11952109  0.81555516     0.78100
C184        C  0.62614550  0.12456484  0.71172138     0.77100
Zn185      Zn  0.11282990  0.85979103  0.09350895     1.49700
Zn186      Zn  0.14143709  0.89641792  0.09778218     1.49400
Zn187      Zn  0.14873391  0.86216061  0.03454223     1.49100
Zn188      Zn  0.11271203  0.89103190  0.02866445     1.49500
O189        O  0.12924204  0.87717883  0.06376213    -1.84200
O190        O  0.11717463  0.86415556  0.14982629    -0.74800
O191        O  0.17014820  0.89136888  0.09811329    -0.74600
O192        O  0.14469192  0.83307691  0.04264739    -0.74100
O193        O  0.13294904  0.89241561  0.15286738    -0.74800
O194        O  0.11887118  0.83195458  0.08104376    -0.74400
O195        O  0.17615212  0.86902609  0.05314958    -0.75000
O196        O  0.11770821  0.88334374  0.97499525    -0.74400
O197        O  0.13733632  0.92459849  0.07998315    -0.75100
O198        O  0.14547628  0.86671423  0.97691156    -0.74500
O199        O  0.11860615  0.91902744  0.02927720    -0.75000
O200        O  0.08450654  0.88759843  0.03977614    -0.74900
O201        O  0.08426316  0.86416431  0.08340882    -0.74700
C202        C  0.12461897  0.87804409  0.16923813     0.77100
C203        C  0.18198260  0.88047281  0.07980557     0.77600
C204        C  0.13190547  0.82342280  0.06114770     0.76500
C205        C  0.13169811  0.87477510  0.95816031     0.76900
C206        C  0.12830422  0.93059601  0.05028949     0.78100
C207        C  0.07531291  0.87605222  0.06170922     0.77100
Zn208      Zn  0.11083454  0.85452605  0.53236767     1.49700
Zn209      Zn  0.11217225  0.88976868  0.59280816     1.49400
Zn210      Zn  0.14292094  0.85428772  0.59779090     1.49100
Zn211      Zn  0.14683151  0.88386268  0.53055876     1.49500
O212        O  0.12800689  0.87077937  0.56360527    -1.84200
O213        O  0.08260845  0.85996902  0.54353855    -0.74800
O214        O  0.11705338  0.88657328  0.65025864    -0.74600
O215        O  0.13816392  0.82602298  0.58768429    -0.74100
O216        O  0.08317255  0.88505360  0.58392464    -0.74800
O217        O  0.11565915  0.82597481  0.54194240    -0.74400
O218        O  0.13631027  0.86049340  0.65199072    -0.75000
O219        O  0.17507270  0.88047225  0.54741438    -0.74400
O220        O  0.11810997  0.91756321  0.57485059    -0.75100
O221        O  0.17166051  0.85856081  0.59346167    -0.74500
O222        O  0.14094408  0.91214329  0.53076098    -0.75000
O223        O  0.14331070  0.87597602  0.47527729    -0.74900
O224        O  0.11536250  0.85965760  0.47620368    -0.74700
C225        C  0.07375894  0.87259220  0.56396145     0.77100
C226        C  0.12665680  0.87379547  0.66894698     0.77600
C227        C  0.12702789  0.81693262  0.56461122     0.76500
C228        C  0.18239194  0.86954901  0.57317148     0.76900
C229        C  0.12956026  0.92365384  0.54855738     0.78100
C230        C  0.12921828  0.86773053  0.45783892     0.77100
Zn231      Zn  0.35582588  0.89253371  0.21532493     1.49700
Zn232      Zn  0.39159713  0.89918180  0.15654872     1.49400
Zn233      Zn  0.39275188  0.86453367  0.21749965     1.49100
Zn234      Zn  0.36264823  0.86223076  0.14882580     1.49500
O235        O  0.37582605  0.87974181  0.18432128    -1.84200
O236        O  0.36080659  0.92118562  0.21609638    -0.74800
O237        O  0.42061728  0.89408643  0.16399674    -0.74600
O238        O  0.38677485  0.87031825  0.27279166    -0.74100
O239        O  0.38618259  0.92649863  0.17794074    -0.74800
O240        O  0.35801220  0.88511613  0.27126166    -0.74400
O241        O  0.42114734  0.87041463  0.20728186    -0.75000
O242        O  0.37023045  0.83420251  0.15716108    -0.74400
O243        O  0.38567692  0.89760860  0.09900298    -0.75100
O244        O  0.38871577  0.83570575  0.20941927    -0.74500
O245        O  0.36804043  0.87040113  0.09510255    -0.75000
O246        O  0.33348646  0.86409590  0.15246646    -0.74900
O247        O  0.32845723  0.88766608  0.19500857    -0.74700
C248        C  0.37341727  0.93264836  0.20177400     0.77100
C249        C  0.43003125  0.88233514  0.18539896     0.77600
C250        C  0.37214466  0.87774323  0.28994954     0.76500
C251        C  0.37992294  0.82588357  0.18363415     0.76900
C252        C  0.37636547  0.88488831  0.07937709     0.78100
C253        C  0.32201922  0.87556759  0.17018594     0.77100
Zn254      Zn  0.35530264  0.86429561  0.71415677     1.49700
Zn255      Zn  0.38993821  0.86260246  0.65199333     1.49400
Zn256      Zn  0.36085768  0.89866982  0.65322852     1.49100
Zn257      Zn  0.39191398  0.89360211  0.71842894     1.49500
O258        O  0.37441555  0.87956182  0.68466786    -1.84200
O259        O  0.36064450  0.83544356  0.70678514    -0.74800
O260        O  0.38405992  0.86850628  0.59675102    -0.74600
O261        O  0.33281121  0.89143990  0.64948439    -0.74100
O262        O  0.38399417  0.83439941  0.66256140    -0.74800
O263        O  0.32761734  0.86864349  0.69338626    -0.74400
O264        O  0.36979387  0.89760047  0.59797585    -0.75000
O265        O  0.38724724  0.92233486  0.71676939    -0.74400
O266        O  0.41887381  0.86635050  0.66027475    -0.75100
O267        O  0.36272650  0.92592774  0.67593967    -0.74500
O268        O  0.42021688  0.88836936  0.70698486    -0.75000
O269        O  0.38588623  0.88700307  0.77267938    -0.74900
O270        O  0.35785598  0.87065969  0.77164132    -0.74700
C271        C  0.37217505  0.82583748  0.68511103     0.77100
C272        C  0.37697521  0.88323524  0.57945332     0.77600
C273        C  0.32151114  0.87946761  0.66612945     0.76500
C274        C  0.37446112  0.93294425  0.70076470     0.76900
C275        C  0.42865473  0.87709905  0.68307707     0.78100
C276        C  0.37153484  0.87925866  0.79001709     0.77100
Zn277      Zn  0.35690735  0.14281474  0.34489898     1.49700
Zn278      Zn  0.38775993  0.14159694  0.27810163     1.49400
Zn279      Zn  0.38702903  0.10705012  0.33985785     1.49100
Zn280      Zn  0.35208587  0.11105785  0.27949642     1.49500
O281        O  0.37102011  0.12553378  0.31046097    -1.84200
O282        O  0.36131518  0.17126878  0.33359142    -0.74800
O283        O  0.41618966  0.13579118  0.28756336    -0.74600
O284        O  0.38104197  0.10936614  0.39702521    -0.74100
O285        O  0.38379859  0.17048546  0.28790443    -0.74800
O286        O  0.36494524  0.13751558  0.39884243    -0.74400
O287        O  0.41564105  0.11347720  0.33362475    -0.75000
O288        O  0.35796903  0.08243626  0.28113508    -0.74400
O289        O  0.38159390  0.13646034  0.22267378    -0.75100
O290        O  0.38328659  0.07914022  0.32025369    -0.74500
O291        O  0.35492008  0.11802786  0.22339258    -0.75000
O292        O  0.32427221  0.11498218  0.29848636    -0.74900
O293        O  0.32815930  0.13777982  0.34317874    -0.74700
C294        C  0.37266688  0.18000959  0.31044074     0.77100
C295        C  0.42500568  0.12477719  0.31126296     0.77600
C296        C  0.37324601  0.12336383  0.41577617     0.76500
C297        C  0.37091777  0.07187954  0.29688460     0.76900
C298        C  0.36805300  0.12735743  0.20517737     0.78100
C299        C  0.31727496  0.12618705  0.32435217     0.77100
Zn300      Zn  0.35532890  0.14295397  0.84511801     1.49700
Zn301      Zn  0.34848740  0.11212580  0.77832112     1.49400
Zn302      Zn  0.38549554  0.14005900  0.77760178     1.49100
Zn303      Zn  0.38261124  0.10552396  0.83976241     1.49500
O304        O  0.36805322  0.12503937  0.81012887    -1.84200
O305        O  0.32640172  0.13871825  0.84503188    -0.74800
O306        O  0.35135079  0.11946385  0.72216838    -0.74600
O307        O  0.38248473  0.16906541  0.78512700    -0.74100
O308        O  0.32114983  0.11669215  0.79927778    -0.74800
O309        O  0.36118006  0.17092697  0.83287426    -0.74400
O310        O  0.37995623  0.13466355  0.72229522    -0.75000
O311        O  0.41149242  0.10925935  0.83141698    -0.74400
O312        O  0.35332570  0.08340485  0.77820040    -0.75100
O313        O  0.41330131  0.13315581  0.78865366    -0.74500
O314        O  0.37627988  0.07799178  0.82173139    -0.75000
O315        O  0.37782833  0.10883125  0.89716891    -0.74900
O316        O  0.36384650  0.13803472  0.89894273    -0.74700
C317        C  0.31491518  0.12762181  0.82637156     0.77100
C318        C  0.36565106  0.12714742  0.70435385     0.77600
C319        C  0.37230226  0.17907924  0.80848424     0.76500
C320        C  0.42145705  0.12075035  0.81049541     0.76900
C321        C  0.36462165  0.07181901  0.79589315     0.78100
C322        C  0.37137171  0.12348654  0.91591877     0.77100
Zn323      Zn  0.10883644  0.10308781  0.47286721     1.49700
Zn324      Zn  0.11110397  0.13334481  0.40576998     1.49400
Zn325      Zn  0.14566226  0.13070666  0.46766614     1.49100
Zn326      Zn  0.13902504  0.09632573  0.40541504     1.49500
O327        O  0.12634895  0.11594339  0.43774087    -1.84200
O328        O  0.08080431  0.10771107  0.46028222    -0.74800
O329        O  0.11793810  0.16133885  0.41644365    -0.74600
O330        O  0.14321491  0.12494873  0.52493475    -0.74100
O331        O  0.08221781  0.12958412  0.41364935    -0.74800
O332        O  0.11353341  0.11200237  0.52641401    -0.74400
O333        O  0.14085843  0.15978995  0.46143070    -0.75000
O334        O  0.16755422  0.10190374  0.40425067    -0.74400
O335        O  0.11620996  0.12790644  0.35037288    -0.75100
O336        O  0.17302448  0.12521633  0.44743966    -0.74500
O337        O  0.13126392  0.09922416  0.34922400    -0.75000
O338        O  0.13493908  0.06877976  0.42654299    -0.74900
O339        O  0.11363251  0.07443684  0.47326860    -0.74700
C340        C  0.07242874  0.11874271  0.43612386     0.77100
C341        C  0.12973578  0.16963536  0.43949893     0.77600
C342        C  0.12834781  0.11896778  0.54350596     0.76500
C343        C  0.17904107  0.11370642  0.42108535     0.76900
C344        C  0.12354952  0.11366246  0.33190261     0.78100
C345        C  0.12437916  0.06277383  0.45432530     0.77100
Zn346      Zn  0.10478424  0.10869584  0.97248678     1.49700
Zn347      Zn  0.10707565  0.13858736  0.90468844     1.49400
Zn348      Zn  0.14179426  0.13643394  0.96703860     1.49100
Zn349      Zn  0.13553306  0.10192255  0.90626390     1.49500
O350        O  0.12240435  0.12157129  0.93749295    -1.84200
O351        O  0.07658616  0.11334289  0.95990482    -0.74800
O352        O  0.11371744  0.16662703  0.91549686    -0.74600
O353        O  0.13955547  0.13035238  0.02426601    -0.74100
O354        O  0.07796893  0.13524179  0.91329601    -0.74800
O355        O  0.10996539  0.11722075  0.02628849    -0.74400
O356        O  0.13636937  0.16537941  0.96109392    -0.75000
O357        O  0.16406703  0.10762753  0.90416630    -0.74400
O358        O  0.11273937  0.13256559  0.84919970    -0.75100
O359        O  0.16937102  0.13125282  0.94665884    -0.74500
O360        O  0.12759707  0.10377966  0.85078974    -0.75000
O361        O  0.13182080  0.07470443  0.92785385    -0.74900
O362        O  0.10969696  0.08006948  0.97313801    -0.74700
C363        C  0.06815594  0.12452160  0.93603182     0.77100
C364        C  0.12514593  0.17507641  0.93908938     0.77600
C365        C  0.12495819  0.12397245  0.04319575     0.76500
C366        C  0.17550829  0.11957612  0.92067722     0.76900
C367        C  0.12023956  0.11791832  0.83211243     0.78100
C368        C  0.12102822  0.06859581  0.95511132     0.77100
Zn369      Zn  0.85765366  0.35756819  0.46061168     1.49700
Zn370      Zn  0.89296497  0.35607780  0.39881448     1.49400
Zn371      Zn  0.86494235  0.39345149  0.40397118     1.49100
Zn372      Zn  0.89482932  0.38424659  0.47016663     1.49500
O373        O  0.87747733  0.37265360  0.43297129    -1.84200
O374        O  0.86183863  0.32890405  0.45012594    -0.74800
O375        O  0.88833861  0.36390135  0.34349693    -0.74600
O376        O  0.83605914  0.38932312  0.40347087    -0.74100
O377        O  0.88545686  0.32786487  0.40634065    -0.74800
O378        O  0.83047125  0.36390043  0.44114942    -0.74400
O379        O  0.87244574  0.39208305  0.34802902    -0.75000
O380        O  0.89050486  0.41281452  0.47444299    -0.74400
O381        O  0.92205719  0.35859940  0.40919184    -0.75100
O382        O  0.87018735  0.42018455  0.42719157    -0.74500
O383        O  0.92284385  0.37982629  0.45739556    -0.75000
O384        O  0.88941973  0.37454936  0.52276266    -0.74900
O385        O  0.85956682  0.36222291  0.51870912    -0.74700
C386        C  0.87308676  0.31932543  0.42784621     0.77100
C387        C  0.88053943  0.37879100  0.32792820     0.77600
C388        C  0.82441367  0.37699893  0.41818077     0.76500
C389        C  0.88038830  0.42518877  0.45619881     0.76900
C390        C  0.93153464  0.36908016  0.43300935     0.78100
C391        C  0.87408785  0.36800505  0.53864002     0.77100
Zn392      Zn  0.86051428  0.40148449  0.89972769     1.49700
Zn393      Zn  0.89230489  0.39803232  0.96576814     1.49400
Zn394      Zn  0.85641934  0.36833099  0.96426596     1.49100
Zn395      Zn  0.89059818  0.36592469  0.90163844     1.49500
O396        O  0.87481556  0.38342408  0.93275932    -1.84200
O397        O  0.86420162  0.42975291  0.91731370    -0.74800
O398        O  0.88779057  0.39082235  0.02069100    -0.74600
O399        O  0.82844320  0.37163396  0.94491822    -0.74100
O400        O  0.88689619  0.42660476  0.96236042    -0.74800
O401        O  0.83199711  0.39533369  0.90220848    -0.74400
O402        O  0.85923668  0.37547049  0.02089680    -0.75000
O403        O  0.88499199  0.33811540  0.91432331    -0.74400
O404        O  0.92056108  0.39342937  0.95338014    -0.75100
O405        O  0.86259553  0.33953942  0.96027432    -0.74500
O406        O  0.91941074  0.37000989  0.90944598    -0.75000
O407        O  0.88475552  0.36983069  0.84606528    -0.74900
O408        O  0.86709689  0.39694185  0.84326430    -0.74700
C409        C  0.87521658  0.43712926  0.94311190     0.77100
C410        C  0.87364119  0.38306348  0.03867634     0.77600
C411        C  0.82132219  0.38304583  0.91966983     0.76500
C412        C  0.87391867  0.32977711  0.93851422     0.76900
C413        C  0.92908770  0.38155997  0.93080550     0.78100
C414        C  0.87578439  0.38273796  0.82677982     0.77100
Zn415      Zn  0.85511680  0.64606944  0.09263627     1.49700
Zn416      Zn  0.84836045  0.61643944  0.02426982     1.49400
Zn417      Zn  0.88532568  0.64482283  0.02460612     1.49100
Zn418      Zn  0.88346968  0.60941066  0.08426917     1.49500
O419        O  0.86817930  0.62902590  0.05639118    -1.84200
O420        O  0.82651462  0.64143263  0.09203007    -0.74800
O421        O  0.85097382  0.62471368  0.96887843    -0.74600
O422        O  0.88139081  0.67364555  0.03447000    -0.74100
O423        O  0.82078096  0.62058102  0.04458190    -0.74800
O424        O  0.86006388  0.67454907  0.08232308    -0.74400
O425        O  0.87965803  0.63977461  0.96879761    -0.75000
O426        O  0.91258060  0.61493927  0.07832681    -0.74400
O427        O  0.85333360  0.58766902  0.02277786    -0.75100
O428        O  0.91356860  0.63878961  0.03537535    -0.74500
O429        O  0.87768123  0.58210089  0.06332240    -0.75000
O430        O  0.87719142  0.61067415  0.14138521    -0.74900
O431        O  0.86242893  0.63939844  0.14637020    -0.74700
C432        C  0.81483458  0.63085935  0.07282893     0.77100
C433        C  0.86519456  0.63243960  0.95092991     0.77600
C434        C  0.87091583  0.68322213  0.05812452     0.76500
C435        C  0.92220291  0.62693230  0.05772906     0.76900
C436        C  0.86531456  0.57604935  0.03859840     0.78100
C437        C  0.86958070  0.62419672  0.16171559     0.77100
Zn438      Zn  0.88941344  0.60532701  0.52106107     1.49700
Zn439      Zn  0.85274054  0.63327583  0.52828565     1.49400
Zn440      Zn  0.85956727  0.59866452  0.58969839     1.49100
Zn441      Zn  0.88820806  0.63544337  0.58817014     1.49500
O442        O  0.87222925  0.61821324  0.55695223    -1.84200
O443        O  0.88295061  0.61219369  0.46711039    -0.74800
O444        O  0.82551343  0.62750607  0.54879369    -0.74600
O445        O  0.86630185  0.57075283  0.57347961    -0.74100
O446        O  0.85437174  0.62724029  0.47086974    -0.74800
O447        O  0.88578212  0.57679491  0.52411708    -0.74400
O448        O  0.83048906  0.60192634  0.58663565    -0.75000
O449        O  0.88200187  0.63168946  0.64362141    -0.74400
O450        O  0.85785193  0.66228567  0.53457284    -0.75100
O451        O  0.86567971  0.60375624  0.64597671    -0.74500
O452        O  0.88267511  0.66341681  0.57546635    -0.75000
O453        O  0.91704985  0.63024015  0.58148005    -0.74900
O454        O  0.91774500  0.61028133  0.53137427    -0.74700
C455        C  0.86809262  0.61964702  0.45107674     0.77100
C456        C  0.81911261  0.61434510  0.57137158     0.77600
C457        C  0.87670649  0.56484340  0.54536914     0.76500
C458        C  0.87358396  0.61832907  0.66268565     0.76900
C459        C  0.87022069  0.67193801  0.55425556     0.78100
C460        C  0.92652057  0.62003267  0.55722169     0.77100
Zn461      Zn  0.60959008  0.60337930  0.15675867     1.49700
Zn462      Zn  0.63534621  0.64134513  0.15099274     1.49400
Zn463      Zn  0.60598302  0.63830088  0.21869270     1.49100
Zn464      Zn  0.64384842  0.61233733  0.21779570     1.49500
O465        O  0.62348054  0.62351313  0.18610256    -1.84200
O466        O  0.61561695  0.60619321  0.09912686    -0.74800
O467        O  0.63072061  0.66901452  0.16493889    -0.74600
O468        O  0.57836610  0.63252322  0.20363191    -0.74100
O469        O  0.62649908  0.63668493  0.09804504    -0.74800
O470        O  0.58029774  0.60750923  0.16290345    -0.74400
O471        O  0.61057159  0.66743436  0.21455101    -0.75000
O472        O  0.64110345  0.62109068  0.27287713    -0.74400
O473        O  0.66387062  0.63727053  0.14844266    -0.75100
O474        O  0.61039044  0.63136551  0.27401385    -0.74500
O475        O  0.67102339  0.61740853  0.19642094    -0.75000
O476        O  0.63987980  0.58354291  0.22007592    -0.74900
O477        O  0.61676193  0.57628636  0.17762788    -0.74700
C478        C  0.62105044  0.62133648  0.08064307     0.77100
C479        C  0.62083109  0.67729685  0.19113863     0.77600
C480        C  0.57027807  0.61996187  0.18178924     0.76500
C481        C  0.62589798  0.62624288  0.29135348     0.76900
C482        C  0.67620859  0.62749153  0.16745722     0.78100
C483        C  0.62885916  0.57115409  0.20365064     0.77100
Zn484      Zn  0.61320404  0.64035988  0.65447729     1.49700
Zn485      Zn  0.64841735  0.63712914  0.71545296     1.49400
Zn486      Zn  0.61065759  0.61001270  0.72064609     1.49100
Zn487      Zn  0.64019685  0.60260208  0.65379494     1.49500
O488        O  0.62843224  0.62273545  0.68605333    -1.84200
O489        O  0.62007244  0.66813591  0.66642306    -0.74800
O490        O  0.64490117  0.63210018  0.77345974    -0.74600
O491        O  0.58266207  0.61520332  0.70875131    -0.74100
O492        O  0.64506665  0.66638868  0.70684904    -0.74800
O493        O  0.58419798  0.63703080  0.66211099    -0.74400
O494        O  0.61559564  0.61837155  0.77366353    -0.75000
O495        O  0.63510714  0.57511622  0.67366825    -0.74400
O496        O  0.67576240  0.62961754  0.69628674    -0.75100
O497        O  0.61519331  0.58140168  0.72224467    -0.74500
O498        O  0.66893525  0.60620485  0.65413711    -0.75000
O499        O  0.63282457  0.60615975  0.59796139    -0.74900
O500        O  0.61857112  0.63525459  0.59891870    -0.74700
C501        C  0.63300628  0.67635338  0.68708916     0.77100
C502        C  0.63010571  0.62540779  0.79149088     0.77600
C503        C  0.57433411  0.62643384  0.68489670     0.76500
C504        C  0.62528526  0.56945928  0.70267281     0.76900
C505        C  0.68118332  0.61716114  0.67104581     0.78100
C506        C  0.62560981  0.62080830  0.58054933     0.77100
Zn507      Zn  0.61641566  0.36056795  0.34398871     1.49700
Zn508      Zn  0.64561983  0.39728687  0.34321912     1.49400
Zn509      Zn  0.65110416  0.36189883  0.28237121     1.49100
Zn510      Zn  0.61473318  0.39117443  0.27734970     1.49500
O511        O  0.63217133  0.37763311  0.31180614    -1.84200
O512        O  0.62236832  0.36589410  0.39924115    -0.74800
O513        O  0.67429001  0.39247706  0.34094642    -0.74600
O514        O  0.64644086  0.33281570  0.29082313    -0.74100
O515        O  0.63916977  0.39362696  0.39969593    -0.74800
O516        O  0.62225866  0.33218812  0.33316575    -0.74400
O517        O  0.67866715  0.36742897  0.30121418    -0.75000
O518        O  0.62009327  0.38324851  0.22351630    -0.74400
O519        O  0.64075272  0.42524832  0.32473657    -0.75100
O520        O  0.64837889  0.36741739  0.22474749    -0.74500
O521        O  0.61897054  0.42001418  0.27886814    -0.75000
O522        O  0.58655393  0.38645948  0.28933950    -0.74900
O523        O  0.58748229  0.36522713  0.33709287    -0.74700
C524        C  0.63087073  0.37962066  0.41734612     0.77100
C525        C  0.68535798  0.38004356  0.32478553     0.77600
C526        C  0.63456303  0.32334630  0.31191456     0.76500
C527        C  0.63429749  0.37515382  0.20627349     0.76900
C528        C  0.62965239  0.43158341  0.29816020     0.78100
C529        C  0.57790261  0.37599469  0.31413787     0.77100
Zn530      Zn  0.64219264  0.39660175  0.84211614     1.49700
Zn531      Zn  0.61155125  0.38983055  0.77506672     1.49400
Zn532      Zn  0.64678632  0.36020058  0.78422198     1.49100
Zn533      Zn  0.61139819  0.36202574  0.84563617     1.49500
O534        O  0.62818605  0.37706673  0.81192055    -1.84200
O535        O  0.63802394  0.42411880  0.82158429    -0.74800
O536        O  0.61722485  0.38065710  0.72218303    -0.74600
O537        O  0.67462561  0.36373443  0.80552927    -0.74100
O538        O  0.61727515  0.41822553  0.77404478    -0.74800
O539        O  0.67069846  0.39052700  0.84071115    -0.74400
O540        O  0.64580073  0.36561374  0.72629453    -0.75000
O541        O  0.61530236  0.33358783  0.83563424    -0.74400
O542        O  0.58295464  0.38633720  0.78557201    -0.75100
O543        O  0.63853315  0.33200021  0.79107177    -0.74500
O544        O  0.58273708  0.36772620  0.83739420    -0.75000
O545        O  0.61765944  0.36768728  0.90072050    -0.74900
O546        O  0.63562512  0.39459957  0.89870052    -0.74700
C547        C  0.62784523  0.42994836  0.79320195     0.77100
C548        C  0.63192362  0.37274340  0.70634299     0.77600
C549        C  0.68154431  0.37705447  0.82738523     0.76500
C550        C  0.62602768  0.32380589  0.81280632     0.76900
C551        C  0.57370725  0.37736566  0.81178193     0.78100
C552        C  0.62686834  0.38134982  0.91762813     0.77100
Zn553      Zn  0.10602262  0.60959236  0.02948803     1.49700
Zn554      Zn  0.10861898  0.63994683  0.09763397     1.49400
Zn555      Zn  0.13645346  0.60245765  0.09588722     1.49100
Zn556      Zn  0.14313247  0.63711198  0.03535602     1.49500
O557        O  0.12364406  0.62241697  0.06469371    -1.84200
O558        O  0.07796368  0.61618795  0.03978675    -0.74800
O559        O  0.11457210  0.63435887  0.15322911    -0.74600
O560        O  0.13170256  0.57499489  0.07556936    -0.74100
O561        O  0.07929064  0.63655422  0.08941609    -0.74800
O562        O  0.10946040  0.58079130  0.03090306    -0.74400
O563        O  0.12851741  0.60508734  0.15142344    -0.75000
O564        O  0.17018021  0.63148914  0.05587853    -0.74400
O565        O  0.11599393  0.66799746  0.08693351    -0.75100
O566        O  0.16537746  0.60710151  0.09664275    -0.74500
O567        O  0.13905753  0.66599866  0.04229474    -0.75000
O568        O  0.14121013  0.63120368  0.97800697    -0.74900
O569        O  0.11274711  0.61580117  0.97541158    -0.74700
C570        C  0.06950352  0.62680527  0.06480077     0.77100
C571        C  0.12163975  0.61952497  0.17017771     0.77600
C572        C  0.12047872  0.56905648  0.04881499     0.76500
C573        C  0.17660429  0.61935172  0.08047710     0.76900
C574        C  0.12813325  0.67608137  0.06425562     0.78100
C575        C  0.12754566  0.62311028  0.95890525     0.77100
Zn576      Zn  0.14716919  0.63199809  0.53581080     1.49700
Zn577      Zn  0.14081678  0.59750023  0.59753022     1.49400
Zn578      Zn  0.11156587  0.63357581  0.59596225     1.49100
Zn579      Zn  0.11099230  0.60278236  0.52967611     1.49500
O580        O  0.12785509  0.61659704  0.56470786    -1.84200
O581        O  0.17464369  0.62642819  0.55534378    -0.74800
O582        O  0.13211917  0.60037175  0.65272095    -0.74600
O583        O  0.11717284  0.66153417  0.58452133    -0.74100
O584        O  0.16932775  0.60372291  0.59958652    -0.74800
O585        O  0.14235782  0.66084701  0.54442432    -0.74400
O586        O  0.11688548  0.62896349  0.65187214    -0.75000
O587        O  0.08259403  0.60713603  0.53995159    -0.74400
O588        O  0.13728855  0.56952786  0.57810577    -0.75100
O589        O  0.08282360  0.62918559  0.58662153    -0.74500
O590        O  0.11558750  0.57436806  0.53203320    -0.75000
O591        O  0.11711279  0.60998501  0.47592405    -0.74900
O592        O  0.14457916  0.62711899  0.47795167    -0.74700
C593        C  0.18074700  0.61532147  0.58211963     0.77100
C594        C  0.12435290  0.61477375  0.67018111     0.77600
C595        C  0.12979453  0.67025388  0.56406810     0.76500
C596        C  0.07361204  0.61810961  0.56351458     0.76900
C597        C  0.12638931  0.56302281  0.55129097     0.78100
C598        C  0.13104480  0.61865473  0.45903556     0.77100
Zn599      Zn  0.15155432  0.38505488  0.47333938     1.49700
Zn600      Zn  0.11555884  0.38949124  0.41535527     1.49400
Zn601      Zn  0.14538909  0.35436802  0.40612006     1.49100
Zn602      Zn  0.11596224  0.35473124  0.47611454     1.49500
O603        O  0.13207480  0.37095427  0.44283442    -1.84200
O604        O  0.14642151  0.41387796  0.47123717    -0.74800
O605        O  0.12022692  0.38814917  0.35784030    -0.74600
O606        O  0.17403384  0.35914503  0.40756123    -0.74100
O607        O  0.11987676  0.41684677  0.43516364    -0.74800
O608        O  0.17913179  0.38043662  0.45456517    -0.74400
O609        O  0.13781164  0.36109768  0.35242428    -0.75000
O610        O  0.12150197  0.32602068  0.46738963    -0.74400
O611        O  0.08732991  0.38331749  0.42377295    -0.75100
O612        O  0.14064899  0.32583437  0.41600881    -0.74500
O613        O  0.08725195  0.35902912  0.46570708    -0.75000
O614        O  0.12143541  0.36134431  0.53157633    -0.74900
O615        O  0.14899809  0.37838461  0.52951346    -0.74700
C616        C  0.13291412  0.42421586  0.45680848     0.77100
C617        C  0.12884019  0.37536323  0.33730433     0.77600
C618        C  0.18545697  0.36983785  0.42715565     0.76500
C619        C  0.13118372  0.31679339  0.44189852     0.76900
C620        C  0.07819903  0.37095838  0.44415689     0.78100
C621        C  0.13538584  0.37017907  0.54840106     0.77100
Zn622      Zn  0.14784732  0.39081916  0.97399222     1.49700
Zn623      Zn  0.11178923  0.36123683  0.97554694     1.49400
Zn624      Zn  0.11424934  0.39506785  0.91136279     1.49100
Zn625      Zn  0.14303539  0.35859740  0.90979943     1.49500
O626        O  0.12905281  0.37652283  0.94272424    -1.84200
O627        O  0.14458868  0.38427636  0.03002074    -0.74800
O628        O  0.08377892  0.36657261  0.96172661    -0.74600
O629        O  0.11878533  0.42300164  0.92917161    -0.74100
O630        O  0.11624451  0.36853429  0.03105371    -0.74800
O631        O  0.14263440  0.41942555  0.97152530    -0.74400
O632        O  0.08556746  0.38984114  0.91751135    -0.75000
O633        O  0.13829804  0.36466481  0.85472853    -0.74400
O634        O  0.11616085  0.33197611  0.96944124    -0.75100
O635        O  0.12092558  0.39196940  0.85456372    -0.74500
O636        O  0.13626704  0.33071034  0.91966909    -0.75000
O637        O  0.17167400  0.36151695  0.91600602    -0.74900
O638        O  0.17553978  0.38642976  0.95615666    -0.74700
C639        C  0.13036516  0.37682759  0.04838758     0.77100
C640        C  0.07564802  0.37825087  0.93830070     0.77600
C641        C  0.13057957  0.43016603  0.95374027     0.76500
C642        C  0.13019864  0.37857633  0.83676138     0.76900
C643        C  0.12591350  0.32220964  0.94485115     0.78100
C644        C  0.18251672  0.37374059  0.93319990     0.77100
Zn645      Zn  0.36396106  0.40083236  0.35052380     1.49700
Zn646      Zn  0.39234163  0.36370618  0.34960485     1.49400
Zn647      Zn  0.35781697  0.36632828  0.28858684     1.49100
Zn648      Zn  0.39413289  0.39472461  0.28361675     1.49500
O649        O  0.37691777  0.38128099  0.31822790    -1.84200
O650        O  0.37244795  0.39795625  0.40571144    -0.74800
O651        O  0.38661027  0.33559808  0.33655876    -0.74600
O652        O  0.33091796  0.37101039  0.31022982    -0.74100
O653        O  0.38646327  0.36869476  0.40544605    -0.74800
O654        O  0.33531459  0.39505693  0.35229713    -0.74400
O655        O  0.36277042  0.33725718  0.29358488    -0.75000
O656        O  0.38836295  0.38760291  0.22942458    -0.74400
O657        O  0.42119789  0.36794172  0.34163821    -0.75100
O658        O  0.35930346  0.37338032  0.23173381    -0.74500
O659        O  0.42232969  0.39021108  0.29561289    -0.75000
O660        O  0.38920715  0.42317155  0.28473542    -0.74900
O661        O  0.36755425  0.42868197  0.33067943    -0.74700
C662        C  0.37949152  0.38333150  0.42346675     0.77100
C663        C  0.37459233  0.32733694  0.31387772     0.77600
C664        C  0.32436165  0.38260261  0.33585831     0.76500
C665        C  0.37331308  0.38088902  0.21268751     0.76900
C666        C  0.43083751  0.37904819  0.31939278     0.78100
C667        C  0.37821338  0.43476261  0.30318431     0.77100
Zn668      Zn  0.36078516  0.36213815  0.85262524     1.49700
Zn669      Zn  0.38869509  0.39909241  0.84657121     1.49400
Zn670      Zn  0.38987092  0.36478930  0.78440307     1.49100
Zn671      Zn  0.35284230  0.39309856  0.78727995     1.49500
O672        O  0.37307709  0.38006311  0.81765831    -1.84200
O673        O  0.36849017  0.36771260  0.90652493    -0.74800
O674        O  0.41772886  0.39412642  0.83820828    -0.74600
O675        O  0.38620307  0.33582503  0.79051789    -0.74100
O676        O  0.38308060  0.39661161  0.90399644    -0.74800
O677        O  0.36560025  0.33415564  0.83935050    -0.74400
O678        O  0.41789904  0.37079963  0.79386614    -0.75000
O679        O  0.35560408  0.38635535  0.73056618    -0.74400
O680        O  0.38272664  0.42658160  0.82760582    -0.75100
O681        O  0.38397267  0.37077716  0.73001880    -0.74500
O682        O  0.35726971  0.42194598  0.78920547    -0.75000
O683        O  0.32543289  0.38749549  0.80757125    -0.74900
O684        O  0.33222834  0.36569137  0.85243175    -0.74700
C685        C  0.37573075  0.38256493  0.92317218     0.77100
C686        C  0.42692733  0.38252164  0.81593061     0.77600
C687        C  0.37586646  0.32590988  0.81361532     0.76500
C688        C  0.36976662  0.37855505  0.71239876     0.76900
C689        C  0.36979350  0.43316674  0.80469964     0.78100
C690        C  0.32001056  0.37604802  0.83433715     0.77100
Zn691      Zn  0.38704888  0.63987568  0.21977410     1.49700
Zn692      Zn  0.35656205  0.64293657  0.15287617     1.49400
Zn693      Zn  0.38423970  0.60600802  0.15672309     1.49100
Zn694      Zn  0.34978401  0.61190016  0.21822139     1.49500
O695        O  0.36949814  0.62506378  0.18704031    -1.84200
O696        O  0.38423323  0.66894833  0.21196172    -0.74800
O697        O  0.36530977  0.63856090  0.09904251    -0.74600
O698        O  0.41313422  0.61042410  0.16329101    -0.74100
O699        O  0.36168973  0.67088077  0.16658796    -0.74800
O700        O  0.41503736  0.63277515  0.20939350    -0.74400
O701        O  0.37875061  0.60909015  0.09958326    -0.75000
O702        O  0.35489195  0.58314723  0.21794270    -0.74400
O703        O  0.32783218  0.63815560  0.15232040    -0.75100
O704        O  0.37886705  0.57858358  0.17593583    -0.74500
O705        O  0.32241211  0.61636698  0.19802877    -0.75000
O706        O  0.35210843  0.61955285  0.27415995    -0.74900
O707        O  0.38087568  0.63443022  0.27480346    -0.74700
C708        C  0.37336084  0.67902376  0.19005369     0.77100
C709        C  0.37253023  0.62398492  0.08144856     0.77600
C710        C  0.42316971  0.62118631  0.18563923     0.76500
C711        C  0.36700033  0.57202145  0.20098747     0.76900
C712        C  0.31627178  0.62718043  0.17090603     0.78100
C713        C  0.36634661  0.62711741  0.29237106     0.77100
Zn714      Zn  0.39084725  0.61207105  0.72167229     1.49700
Zn715      Zn  0.36073061  0.60421109  0.65582736     1.49400
Zn716      Zn  0.35391792  0.63998657  0.71552080     1.49100
Zn717      Zn  0.38852424  0.64146139  0.65333544     1.49500
O718        O  0.37325322  0.62460877  0.68655293    -1.84200
O719        O  0.38605929  0.58356787  0.72398455    -0.74800
O720        O  0.33213641  0.60919288  0.65562540    -0.74600
O721        O  0.35712109  0.63553907  0.77337773    -0.74100
O722        O  0.36522466  0.57683029  0.67721850    -0.74800
O723        O  0.38597352  0.62088520  0.77491687    -0.74400
O724        O  0.32633034  0.63328548  0.69696281    -0.75000
O725        O  0.38195465  0.66959303  0.66247446    -0.74400
O726        O  0.36796054  0.60631801  0.59971539    -0.75100
O727        O  0.35835398  0.66895012  0.70613749    -0.74500
O728        O  0.38263922  0.63518359  0.59847244    -0.75000
O729        O  0.41754715  0.63807829  0.66122229    -0.74900
O730        O  0.41882635  0.61645452  0.70833083    -0.74700
C731        C  0.37556874  0.57145401  0.70570861     0.77100
C732        C  0.32040970  0.62091685  0.67202181     0.77600
C733        C  0.37151024  0.62852274  0.79205253     0.76500
C734        C  0.36987788  0.67837776  0.68422460     0.76900
C735        C  0.37513151  0.62062467  0.58119876     0.78100
C736        C  0.42727484  0.62733209  0.68396376     0.77100
C737        C  0.37534553  0.60834866  0.97710511    -0.10900
C738        C  0.37275999  0.62623044  0.95809929     0.06300
C739        C  0.37080733  0.64331334  0.97997025    -0.09600
C740        C  0.37107788  0.64252086  0.01998315    -0.11300
C741        C  0.37335265  0.62462851  0.03905910    -0.01100
C742        C  0.37569062  0.60755715  0.01723480    -0.10200
C743        C  0.37230118  0.62710336  0.91558790     0.06300
H744        H  0.36919499  0.65732064  0.96610901     0.08200
H745        H  0.36946541  0.65597728  0.03601920     0.11700
H746        H  0.37736228  0.59357001  0.03114516     0.11900
H747        H  0.37674376  0.59491783  0.96091856     0.08200
C748        C  0.38565016  0.61619242  0.89397890    -0.10900
C749        C  0.38536384  0.61690526  0.85402135    -0.10200
C750        C  0.37164274  0.62846956  0.83455895    -0.01100
C751        C  0.35823946  0.63942613  0.85609999    -0.11300
C752        C  0.35864179  0.63882827  0.89630831    -0.09700
H753        H  0.39648956  0.60724416  0.90800891     0.08200
H754        H  0.39587184  0.60819649  0.83835335     0.11900
H755        H  0.34750905  0.64844256  0.84193033     0.11700
H756        H  0.34807800  0.64729267  0.91233633     0.08200
C757        C  0.37976901  0.63803837  0.47885698    -0.10900
C758        C  0.37012160  0.62330944  0.45818044     0.06300
C759        C  0.36240540  0.60734001  0.47833822    -0.09600
C760        C  0.36434990  0.60616526  0.51827749    -0.11300
C761        C  0.37409677  0.62091034  0.53877917    -0.01100
C762        C  0.38183236  0.63679937  0.51854315    -0.10200
C763        C  0.36864022  0.62455207  0.41570450     0.06300
H764        H  0.35508705  0.59563295  0.46323412     0.08200
H765        H  0.35809296  0.59380727  0.53309286     0.11700
H766        H  0.38925103  0.64852327  0.53342745     0.11900
H767        H  0.38553340  0.65074567  0.46443993     0.08200
C768        C  0.35188886  0.61816763  0.39609271    -0.10900
C769        C  0.35087041  0.61928994  0.35599599    -0.10200
C770        C  0.36654476  0.62691641  0.33483578    -0.01100
C771        C  0.38312438  0.63350459  0.35456799    -0.11300
C772        C  0.38420748  0.63221954  0.39437767    -0.09700
H773        H  0.33953436  0.61242231  0.41171290     0.08200
H774        H  0.33789735  0.61407276  0.34159341     0.11900
H775        H  0.39553980  0.63930689  0.33920129     0.11700
H776        H  0.39749182  0.63689126  0.40836326     0.08200
C777        C  0.38622850  0.48542418  0.78987305    -0.10900
C778        C  0.37170986  0.49261091  0.76509146     0.06300
C779        C  0.35594430  0.48043421  0.75580452    -0.09600
C780        C  0.35499850  0.46141859  0.76989015    -0.11300
C781        C  0.36976129  0.45406461  0.79381665    -0.01100
C782        C  0.38522198  0.46640551  0.80416916    -0.10200
C783        C  0.37297582  0.51270079  0.74908636     0.06300
H784        H  0.34426692  0.48558675  0.73758724     0.08200
H785        H  0.34282231  0.45235839  0.76142716     0.11700
H786        H  0.39690097  0.46117169  0.82230961     0.11900
H787        H  0.39869803  0.49428455  0.79737709     0.08200
C788        C  0.38051384  0.52798446  0.77147671    -0.10900
C789        C  0.38163805  0.54684653  0.75686485    -0.10200
C790        C  0.37503466  0.55106103  0.71955991    -0.01100
C791        C  0.36745229  0.53586707  0.69700855    -0.11300
C792        C  0.36655777  0.51684880  0.71151291    -0.09700
H793        H  0.38521979  0.52548943  0.80072898     0.08200
H794        H  0.38731537  0.55825397  0.77526117     0.11900
H795        H  0.36229522  0.53866107  0.66814785     0.11700
H796        H  0.36096639  0.50538435  0.69318987     0.08200
C797        C  0.37113873  0.39866457  0.52686886    -0.10900
C798        C  0.37518755  0.38132732  0.54668497     0.06300
C799        C  0.38131085  0.36489954  0.52568066    -0.09600
C800        C  0.38322681  0.36574217  0.48582699    -0.11300
C801        C  0.37889414  0.38298347  0.46594232    -0.01100
C802        C  0.37291445  0.39946856  0.48691335    -0.10200
C803        C  0.37328564  0.38036872  0.58911529     0.06300
H804        H  0.38427449  0.35122971  0.53996138     0.08200
H805        H  0.38768533  0.35272035  0.47052684     0.11700
H806        H  0.36949707  0.41298100  0.47244084     0.11900
H807        H  0.36673173  0.41166882  0.54226503     0.08200
C808        C  0.38688211  0.36979034  0.61071189    -0.10900
C809        C  0.38537978  0.36893255  0.65054145    -0.10200
C810        C  0.37029138  0.37871140  0.66994359    -0.01100
C811        C  0.35654200  0.38918331  0.64846165    -0.11300
C812        C  0.35802746  0.39000072  0.60839651    -0.09700
H813        H  0.39897963  0.36246638  0.59690581     0.08200
H814        H  0.39627700  0.36076961  0.66616874     0.11900
H815        H  0.34479173  0.39691100  0.66259491     0.11700
H816        H  0.34716641  0.39806712  0.59250439     0.08200
C817        C  0.38021790  0.40043423  0.02614352    -0.10900
C818        C  0.37203310  0.38477324  0.04662390     0.06300
C819        C  0.36519816  0.36852840  0.02611319    -0.09600
C820        C  0.36660753  0.36785035  0.98619796    -0.11300
C821        C  0.37491826  0.38340169  0.96565790    -0.01100
C822        C  0.38166477  0.39974547  0.98605644    -0.10200
C823        C  0.37155242  0.38480350  0.08927731     0.06300
H824        H  0.35915134  0.35607886  0.04097342     0.08200
H825        H  0.36120327  0.35503025  0.97145776     0.11700
H826        H  0.38797073  0.41202851  0.97106987     0.11900
H827        H  0.38542851  0.41326595  0.04109942     0.08200
C828        C  0.38745627  0.39209420  0.11009472    -0.10900
C829        C  0.38783869  0.39088058  0.15001992    -0.10200
C830        C  0.37234632  0.38227820  0.17028192    -0.01100
C831        C  0.35618002  0.37537304  0.14963150    -0.11300
C832        C  0.35578423  0.37663000  0.10950330    -0.09700
H833        H  0.39994417  0.39822542  0.09547316     0.08200
H834        H  0.40048184  0.39649340  0.16496145     0.11900
H835        H  0.34391470  0.36889493  0.16441488     0.11700
H836        H  0.34316824  0.37114967  0.09429198     0.08200
C837        C  0.36542192  0.48861353  0.29598711    -0.10900
C838        C  0.37382939  0.49350940  0.26031404     0.06300
C839        C  0.38421511  0.47910462  0.24022480    -0.09600
C840        C  0.38608282  0.46038327  0.25507315    -0.11300
C841        C  0.37736543  0.45531666  0.29022476    -0.01100
C842        C  0.36706409  0.46966529  0.31068071    -0.10200
C843        C  0.37169918  0.51339548  0.24365465     0.06300
H844        H  0.39053606  0.48208903  0.21238527     0.08200
H845        H  0.39394889  0.44967813  0.23821388     0.11700
H846        H  0.36019011  0.46622649  0.33781665     0.11900
H847        H  0.35759635  0.49941744  0.31263512     0.08200
C848        C  0.35452202  0.52419845  0.24915261    -0.10900
C849        C  0.35272258  0.54296936  0.23407087    -0.10200
C850        C  0.36794320  0.55131739  0.21268497    -0.01100
C851        C  0.38486552  0.54034298  0.20610937    -0.11300
C852        C  0.38679010  0.52168965  0.22166544    -0.09700
H853        H  0.34241811  0.51816786  0.26508921     0.08200
H854        H  0.33946715  0.55106023  0.23957577     0.11900
H855        H  0.39696083  0.54647026  0.19024879     0.11700
H856        H  0.40037408  0.51400696  0.21727383     0.08200
C857        C  0.23129463  0.35646786  0.89759147    -0.10900
C858        C  0.24146899  0.37411624  0.89373077     0.06300
C859        C  0.23265090  0.39147877  0.90636857    -0.09600
C860        C  0.21381459  0.39123352  0.92165127    -0.11300
C861        C  0.20342075  0.37366658  0.92396724    -0.01100
C862        C  0.21242233  0.35626560  0.91234394    -0.10200
C863        C  0.26124378  0.37429188  0.87669992     0.06300
H864        H  0.24028661  0.40523662  0.90423147     0.08200
H865        H  0.20705676  0.40486900  0.92999441     0.11700
H866        H  0.20464693  0.34255060  0.91373260     0.11900
H867        H  0.23768407  0.34287339  0.88797406     0.08200
C868        C  0.27474880  0.35991723  0.88699308    -0.10900
C869        C  0.29355089  0.36021632  0.87203529    -0.10200
C870        C  0.29936461  0.37489450  0.84633873    -0.01100
C871        C  0.28570992  0.38899304  0.83508627    -0.11300
C872        C  0.26681061  0.38872540  0.85026005    -0.09700
H873        H  0.27093789  0.34870151  0.90746722     0.08200
H874        H  0.30368332  0.34909399  0.88130477     0.11900
H875        H  0.28977024  0.40048834  0.81542840     0.11700
H876        H  0.25655297  0.39981370  0.84139294     0.08200
C877        C  0.14645616  0.36602703  0.73578742    -0.10900
C878        C  0.13425818  0.37780867  0.71353402     0.06300
C879        C  0.12112566  0.39047430  0.73189436    -0.09600
C880        C  0.12004841  0.39116207  0.77203272    -0.11300
C881        C  0.13184603  0.37890507  0.79436752    -0.01100
C882        C  0.14517200  0.36646130  0.77576388    -0.10200
C883        C  0.13465925  0.37612011  0.67125621     0.06300
H884        H  0.11165050  0.39975413  0.71511489     0.08200
H885        H  0.10971061  0.40093331  0.78551564     0.11700
H886        H  0.15457212  0.35691276  0.79211170     0.11900
H887        H  0.15659375  0.35608007  0.72217330     0.08200
C888        C  0.15222488  0.37800929  0.65096665    -0.10900
C889        C  0.15254940  0.37597848  0.61098252    -0.10200
C890        C  0.13537669  0.37156619  0.59077724    -0.01100
C891        C  0.11788314  0.36940895  0.61129467    -0.11300
C892        C  0.11749984  0.37185623  0.65111499    -0.09700
H893        H  0.16563321  0.38126202  0.66606294     0.08200
H894        H  0.16622338  0.37776616  0.59590399     0.11900
H895        H  0.10439523  0.36618072  0.59647211     0.11700
H896        H  0.10384812  0.37013995  0.66631427     0.08200
C897        C  0.14703927  0.38251909  0.15143567    -0.10900
C898        C  0.12949183  0.38017706  0.17167225     0.06300
C899        C  0.11217358  0.37724801  0.15106613    -0.09600
C900        C  0.11248635  0.37608043  0.11099838    -0.11300
C901        C  0.13008324  0.37810366  0.09076137    -0.01100
C902        C  0.14731551  0.38163913  0.11135100    -0.10200
C903        C  0.12944806  0.37963091  0.21416558     0.06300
H904        H  0.09848651  0.37527849  0.16601086     0.08200
H905        H  0.09893913  0.37359689  0.09584246     0.11700
H906        H  0.16106520  0.38337985  0.09651617     0.11900
H907        H  0.16056723  0.38496031  0.16669392     0.08200
C908        C  0.14330174  0.36831079  0.23350475    -0.10900
C909        C  0.14296502  0.36695030  0.27341987    -0.10200
C910        C  0.12890520  0.37706872  0.29500036    -0.01100
C911        C  0.11517731  0.38865390  0.27575770    -0.11300
C912        C  0.11534672  0.38978765  0.23560459    -0.09700
H913        H  0.15417468  0.36016030  0.21765118     0.08200
H914        H  0.15381577  0.35799499  0.28741834     0.11900
H915        H  0.10418266  0.39659945  0.29167713     0.11700
H916        H  0.10454849  0.39867417  0.22128981     0.08200
C917        C  0.27654951  0.39282097  0.38646100    -0.10900
C918        C  0.26563202  0.37612296  0.37716281     0.06300
C919        C  0.27409162  0.36189290  0.35320602    -0.09600
C920        C  0.29288987  0.36434727  0.33874635    -0.11300
C921        C  0.30383739  0.38093527  0.34834704    -0.01100
C922        C  0.29547295  0.39515054  0.37239323    -0.10200
C923        C  0.24532178  0.37376970  0.39134694     0.06300
H924        H  0.26631249  0.34866194  0.34603143     0.08200
H925        H  0.29903317  0.35296988  0.32082154     0.11700
H926        H  0.30356478  0.40807742  0.38041299     0.11900
H927        H  0.27040690  0.40424482  0.40424150     0.08200
C928        C  0.23970140  0.38059155  0.42792590    -0.10900
C929        C  0.22031883  0.37907371  0.44012071    -0.10200
C930        C  0.20626120  0.37045534  0.41620834    -0.01100
C931        C  0.21199973  0.36324074  0.38012925    -0.11300
C932        C  0.23120556  0.36500687  0.36776924    -0.09700
H933        H  0.25025341  0.38711439  0.44712287     0.08200
H934        H  0.21632358  0.38471441  0.46813227     0.11900
H935        H  0.20149695  0.35673172  0.36077896     0.11700
H936        H  0.23482645  0.35996260  0.33914932     0.08200
C937        C  0.22538209  0.61246019  0.64561094    -0.10900
C938        C  0.24014876  0.61904856  0.62106369     0.06300
C939        C  0.23533306  0.62434886  0.58323950    -0.09600
C940        C  0.21603507  0.62323312  0.57035988    -0.11300
C941        C  0.20130864  0.61634788  0.59479621    -0.01100
C942        C  0.20621241  0.61094714  0.63253103    -0.10200
C943        C  0.26061455  0.61975446  0.63453469     0.06300
H944        H  0.24648762  0.62952692  0.56381019     0.08200
H945        H  0.21266273  0.62756127  0.54122054     0.11700
H946        H  0.19514827  0.60579520  0.65219176     0.11900
H947        H  0.22874819  0.60814236  0.67476725     0.08200
C948        C  0.26553199  0.62862231  0.66972396    -0.10900
C949        C  0.28494756  0.62911076  0.68220521    -0.10200
C950        C  0.29968393  0.62036215  0.66009065    -0.01100
C951        C  0.29461199  0.61132252  0.62512702    -0.11300
C952        C  0.27535307  0.61115961  0.61240230    -0.09700
H953        H  0.25438598  0.63538488  0.68725281     0.08200
H954        H  0.28840832  0.63621474  0.70918300     0.11900
H955        H  0.30560094  0.60456444  0.60720307     0.11700
H956        H  0.27191492  0.60406280  0.58539051     0.08200
C957        C  0.14155227  0.51005448  0.54067556    -0.10900
C958        C  0.12817820  0.50335852  0.51293660     0.06300
C959        C  0.11363224  0.51611540  0.50007495    -0.09600
C960        C  0.11273574  0.53518665  0.51377785    -0.11300
C961        C  0.12642171  0.54211043  0.54061130    -0.01100
C962        C  0.14067614  0.52925622  0.55441017    -0.10200
C963        C  0.12946116  0.48328778  0.49690833     0.06300
H964        H  0.10323663  0.51156640  0.47846448     0.08200
H965        H  0.10151495  0.54466656  0.50253860     0.11700
H966        H  0.15141747  0.53415589  0.57505231     0.11900
H967        H  0.15273407  0.50047084  0.55168321     0.08200
C968        C  0.14765859  0.47465666  0.48952400    -0.10900
C969        C  0.14881986  0.45562038  0.47528400    -0.10200
C970        C  0.13181539  0.44498539  0.46744802    -0.01100
C971        C  0.11363406  0.45376826  0.47355514    -0.11300
C972        C  0.11245753  0.47265132  0.48847075    -0.09700
H973        H  0.16101739  0.48259942  0.49482474     0.08200
H974        H  0.16300748  0.44913437  0.47066620     0.11900
H975        H  0.10031557  0.44571942  0.46835348     0.11700
H976        H  0.09820975  0.47872414  0.49429272     0.08200
C977        C  0.13028957  0.59978076  0.77414214    -0.10900
C978        C  0.12753482  0.61761295  0.79339855     0.06300
C979        C  0.12318984  0.63431412  0.77189475    -0.09600
C980        C  0.12166716  0.63323764  0.73195959    -0.11300
C981        C  0.12467064  0.61547039  0.71262069    -0.01100
C982        C  0.12898544  0.59874055  0.73412384    -0.10200
C983        C  0.12858250  0.61870138  0.83586842     0.06300
H984        H  0.12072237  0.64817766  0.78602889     0.08200
H985        H  0.11845630  0.64641952  0.71617466     0.11700
H986        H  0.13141947  0.58486320  0.72001760     0.11900
H987        H  0.13373672  0.58668980  0.79002269     0.08200
C988        C  0.11946166  0.60438697  0.85820914    -0.10900
C989        C  0.11941325  0.60584476  0.89813804    -0.10200
C990        C  0.12868903  0.62151563  0.91669763    -0.01100
C991        C  0.13835201  0.63556034  0.89455447    -0.11300
C992        C  0.13814299  0.63425963  0.85439488    -0.09700
H993        H  0.11187354  0.59232945  0.84475936     0.08200
H994        H  0.11201015  0.59469930  0.91457757     0.11900
H995        H  0.14560202  0.64776138  0.90822460     0.11700
H996        H  0.14544841  0.64539696  0.83779577     0.08200
C997        C  0.11810225  0.60523653  0.35695059    -0.10900
C998        C  0.12873867  0.61885733  0.33557890     0.06300
C999        C  0.14082415  0.63219403  0.35504222    -0.09600
C1000       C  0.14209486  0.63195214  0.39523384    -0.11300
C1001       C  0.13108102  0.61853936  0.41653705    -0.01100
C1002       C  0.11922289  0.60510507  0.39686699    -0.10200
C1003       C  0.12691344  0.61911404  0.29316310     0.06300
H1004       H  0.14932897  0.64273450  0.33915417     0.08200
H1005       H  0.15134201  0.64246602  0.40961979     0.11700
H1006       H  0.11062597  0.59449020  0.41238067     0.11900
H1007       H  0.10854115  0.59491687  0.34280892     0.08200
C1008       C  0.12682839  0.60156384  0.27222447    -0.10900
C1009       C  0.12479772  0.60167447  0.23233304    -0.10200
C1010       C  0.12257020  0.61932422  0.21256531    -0.01100
C1011       C  0.12238002  0.63687642  0.23351445    -0.11300
C1012       C  0.12466758  0.63677920  0.27341765    -0.09700
H1013       H  0.12863368  0.58773714  0.28668625     0.08200
H1014       H  0.12502764  0.58793839  0.21693167     0.11900
H1015       H  0.12085504  0.65071798  0.21897469     0.11700
H1016       H  0.12444081  0.65049045  0.28889964     0.08200
C1017       C  0.22509714  0.60556614  0.12482129    -0.10900
C1018       C  0.23597693  0.62274745  0.11988079     0.06300
C1019       C  0.22725792  0.63852367  0.10070906    -0.09600
C1020       C  0.20824373  0.63713418  0.08672212    -0.11300
C1021       C  0.19732805  0.62006725  0.09210549    -0.01100
C1022       C  0.20595030  0.60428940  0.11132460    -0.10200
C1023       C  0.25641457  0.62418268  0.13398705     0.06300
H1024       H  0.23499314  0.65212959  0.09705992     0.08200
H1025       H  0.20188219  0.64967046  0.07267326     0.11700
H1026       H  0.19788113  0.59094718  0.11595388     0.11900
H1027       H  0.23141759  0.59300663  0.13882530     0.08200
C1028       C  0.26226106  0.61508983  0.16831620    -0.10900
C1029       C  0.28162463  0.61623103  0.18080003    -0.10200
C1030       C  0.29550039  0.62663335  0.15941886    -0.01100
C1031       C  0.28957445  0.63591006  0.12545181    -0.11300
C1032       C  0.27035647  0.63460557  0.11282070    -0.09700
H1033       H  0.25186784  0.60718444  0.18567428     0.08200
H1034       H  0.28573332  0.60892669  0.20710573     0.11900
H1035       H  0.29990337  0.64386991  0.10801264     0.11700
H1036       H  0.26655594  0.64145106  0.08588075     0.08200
C1037       C  0.14273134  0.47856898  0.00034714    -0.10900
C1038       C  0.12623633  0.48981673  0.99157786     0.06300
C1039       C  0.11184539  0.48166805  0.96756092    -0.09600
C1040       C  0.11366441  0.46260057  0.95362084    -0.11300
C1041       C  0.12979706  0.45115887  0.96374187    -0.01100
C1042       C  0.14444239  0.45947619  0.98676608    -0.10200
C1043       C  0.12409097  0.50992272  0.00738909     0.06300
H1044       H  0.09883376  0.48977967  0.96045322     0.08200
H1045       H  0.10206799  0.45657742  0.93617858     0.11700
H1046       H  0.15714385  0.45110082  0.99488481     0.11900
H1047       H  0.15435975  0.48448291  0.01782216     0.08200
C1048       C  0.11522154  0.52456064  0.98541583    -0.10900
C1049       C  0.11351188  0.54349295  0.99968527    -0.10200
C1050       C  0.12087887  0.54844126  0.03611454    -0.01100
C1051       C  0.12962715  0.53386092  0.05838595    -0.11300
C1052       C  0.13106614  0.51475937  0.04430563    -0.09700
H1053       H  0.11002245  0.52156343  0.95666252     0.08200
H1054       H  0.10694036  0.55443954  0.98149261     0.11900
H1055       H  0.13541679  0.53723086  0.08655769     0.11700
H1056       H  0.13763525  0.50378710  0.06240255     0.08200
C1057       C  0.52150492  0.38758720  0.78224538    -0.10900
C1058       C  0.51107171  0.38037236  0.81375113     0.06300
C1059       C  0.52120043  0.37197292  0.84446992    -0.09600
C1060       C  0.54153921  0.37076446  0.84368670    -0.11300
C1061       C  0.55211626  0.37823985  0.81240344    -0.01100
C1062       C  0.54184541  0.38668637  0.78169813    -0.10200
C1063       C  0.48960575  0.38126531  0.81420295     0.06300
H1064       H  0.51333030  0.36616430  0.86884730     0.08200
H1065       H  0.54898035  0.36412397  0.86771792     0.11700
H1066       H  0.54951683  0.39252692  0.75711734     0.11900
H1067       H  0.51388991  0.39408085  0.75824832     0.08200
C1068       C  0.47977897  0.39237897  0.84201630    -0.10900
C1069       C  0.45939303  0.39309054  0.84239516    -0.10200
C1070       C  0.44852793  0.38241379  0.81532078    -0.01100
C1071       C  0.45852377  0.37128897  0.78754103    -0.11300
C1072       C  0.47884988  0.37084960  0.78683205    -0.09700
H1073       H  0.48790885  0.40058363  0.86325316     0.08200
H1074       H  0.45215505  0.40180391  0.86409832     0.11900
H1075       H  0.45064247  0.36290390  0.76621857     0.11700
H1076       H  0.48621025  0.36215355  0.76523716     0.08200
C1077       C  0.52600346  0.36823786  0.34860318    -0.10900
C1078       C  0.51519213  0.37816885  0.32046499     0.06300
C1079       C  0.52528041  0.38736053  0.29038247    -0.09600
C1080       C  0.54557572  0.38666784  0.28847546    -0.11300
C1081       C  0.55635065  0.37658709  0.31635879    -0.01100
C1082       C  0.54633695  0.36738452  0.34647767    -0.10200
C1083       C  0.49350762  0.37868343  0.32189537     0.06300
H1084       H  0.51749753  0.39482012  0.26776694     0.08200
H1085       H  0.55281362  0.39389400  0.26483726     0.11700
H1086       H  0.55421770  0.35965070  0.36861957     0.11900
H1087       H  0.51878636  0.36127080  0.37254505     0.08200
C1088       C  0.48283357  0.36249808  0.33499670    -0.10900
C1089       C  0.46247041  0.36273563  0.33486967    -0.10200
C1090       C  0.45233169  0.37902603  0.32106043    -0.01100
C1091       C  0.46291763  0.39527338  0.30834597    -0.11300
C1092       C  0.48325012  0.39518357  0.30910707    -0.09700
H1093       H  0.49018094  0.34942362  0.34447670     0.08200
H1094       H  0.45465729  0.34997033  0.34465465     0.11900
H1095       H  0.45546175  0.40813890  0.29803455     0.11700
H1096       H  0.49091859  0.40809548  0.29969613     0.08200
C1097       C  0.64603295  0.38789806  0.52094897    -0.10900
C1098       C  0.63303437  0.37561947  0.54048660     0.06300
C1099       C  0.61926974  0.36493439  0.51937099    -0.09600
C1100       C  0.61851450  0.36641573  0.47947358    -0.11300
C1101       C  0.63135036  0.37882290  0.45978433    -0.01100
C1102       C  0.64510062  0.38960950  0.48091443    -0.10200
C1103       C  0.63312105  0.37445723  0.58290953     0.06300
H1104       H  0.60915254  0.35530721  0.53380087     0.08200
H1105       H  0.60780067  0.35786246  0.46403414     0.11700
H1106       H  0.65529219  0.39914593  0.46647406     0.11900
H1107       H  0.65666065  0.39640011  0.53672293     0.08200
C1108       C  0.65042618  0.37117198  0.60345032    -0.10900
C1109       C  0.65012545  0.36997229  0.64366164    -0.10200
C1110       C  0.63255868  0.37239397  0.66384877    -0.01100
C1111       C  0.61531792  0.37564080  0.64304404    -0.11300
C1112       C  0.61558882  0.37655904  0.60310587    -0.09700
H1113       H  0.66410685  0.36939563  0.58836337     0.08200
H1114       H  0.66363571  0.36758305  0.65894776     0.11900
H1115       H  0.60152914  0.37757710  0.65767597     0.11700
H1116       H  0.60208849  0.37924704  0.58794561     0.08200
C1117       C  0.65055588  0.37608719  0.10199511    -0.10900
C1118       C  0.63255559  0.37787693  0.08308404     0.06300
C1119       C  0.61539003  0.37826165  0.10485454    -0.09600
C1120       C  0.61612253  0.37703883  0.14471615    -0.11300
C1121       C  0.63403455  0.37517943  0.16384084    -0.01100
C1122       C  0.65128263  0.37455123  0.14214098    -0.10200
C1123       C  0.63134055  0.37895795  0.04072182     0.06300
H1124       H  0.60135896  0.37977315  0.09098503     0.08200
H1125       H  0.60258186  0.37757861  0.16064829     0.11700
H1126       H  0.66528092  0.37331250  0.15622089     0.11900
H1127       H  0.66398175  0.37565504  0.08569017     0.08200
C1128       C  0.64289588  0.39209305  0.01989384    -0.10900
C1129       C  0.64109189  0.39334161  0.97990808    -0.10200
C1130       C  0.62787595  0.38128403  0.96009901    -0.01100
C1131       C  0.61634499  0.36819456  0.98114462    -0.11300
C1132       C  0.61801054  0.36710674  0.02097393    -0.09700
H1133       H  0.65313303  0.40151990  0.03460319     0.08200
H1134       H  0.65025799  0.40349409  0.96447321     0.11900
H1135       H  0.60608005  0.35865150  0.96681407     0.11700
H1136       H  0.60901126  0.35679457  0.03639762     0.08200
C1137       C  0.52251500  0.63545587  0.65173899    -0.10900
C1138       C  0.51164854  0.62766641  0.68235378     0.06300
C1139       C  0.52169928  0.61988120  0.71397278    -0.09600
C1140       C  0.54199633  0.61946397  0.71460800    -0.11300
C1141       C  0.55281958  0.62713119  0.68396626    -0.01100
C1142       C  0.54288768  0.63530804  0.65266496    -0.10200
C1143       C  0.48996407  0.62745951  0.68147075     0.06300
H1144       H  0.51390457  0.61423315  0.73855718     0.08200
H1145       H  0.54922301  0.61327995  0.73937046     0.11700
H1146       H  0.55085687  0.64127368  0.62857029     0.11900
H1147       H  0.51531668  0.64134154  0.62669431     0.08200
C1148       C  0.47939428  0.64273291  0.66443411    -0.10900
C1149       C  0.45901210  0.64259625  0.66460226    -0.10200
C1150       C  0.44878614  0.62733577  0.68228978    -0.01100
C1151       C  0.45931122  0.61201447  0.69896654    -0.11300
C1152       C  0.47961052  0.61197927  0.69824564    -0.09700
H1153       H  0.48683147  0.65501955  0.65168120     0.08200
H1154       H  0.45126705  0.65463827  0.65163576     0.11900
H1155       H  0.45184112  0.59991388  0.71237915     0.11700
H1156       H  0.48716982  0.59969338  0.71069387     0.08200
C1157       C  0.63525113  0.51503501  0.70517980    -0.10900
C1158       C  0.62855143  0.51010891  0.74211413     0.06300
C1159       C  0.62072310  0.52478424  0.76560171    -0.09600
C1160       C  0.61941371  0.54391683  0.75236500    -0.11300
C1161       C  0.62607561  0.54889236  0.71541662    -0.01100
C1162       C  0.63413302  0.53426328  0.69204235    -0.10200
C1163       C  0.62898063  0.48960701  0.75552437     0.06300
H1164       H  0.61525172  0.52139443  0.79398956     0.08200
H1165       H  0.61331413  0.55486936  0.77131817     0.11700
H1166       H  0.63951934  0.53766196  0.66360298     0.11900
H1167       H  0.64150428  0.50402268  0.68656950     0.08200
C1168       C  0.62318659  0.47457169  0.73067934    -0.10900
C1169       C  0.62283237  0.45531699  0.74323070    -0.10200
C1170       C  0.62843915  0.45054887  0.78088220    -0.01100
C1171       C  0.63450708  0.46551128  0.80574870    -0.11300
C1172       C  0.63461787  0.48491582  0.79326670    -0.09700
H1173       H  0.61853296  0.47774747  0.70165024     0.08200
H1174       H  0.61821949  0.44410629  0.72325234     0.11900
H1175       H  0.63891191  0.46224634  0.83488975     0.11700
H1176       H  0.63925030  0.49623484  0.81297396     0.08200
C1177       C  0.51807311  0.60376922  0.16416763    -0.10900
C1178       C  0.50753987  0.62000766  0.17769490     0.06300
C1179       C  0.51791282  0.63648916  0.19027448    -0.09600
C1180       C  0.53821243  0.63646254  0.19099128    -0.11300
C1181       C  0.54875362  0.62005045  0.17867843    -0.01100
C1182       C  0.53849202  0.60382894  0.16448457    -0.10200
C1183       C  0.48587744  0.61975873  0.17985307     0.06300
H1184       H  0.51033026  0.64946696  0.19978234     0.08200
H1185       H  0.54566982  0.64934424  0.20140275     0.11700
H1186       H  0.54622054  0.59098747  0.15469061     0.11900
H1187       H  0.51056210  0.59079387  0.15442956     0.08200
C1188       C  0.47461645  0.61068432  0.15119275    -0.10900
C1189       C  0.45425180  0.61091931  0.15324989    -0.10200
C1190       C  0.44471092  0.62034081  0.18386986    -0.01100
C1191       C  0.45596505  0.62921005  0.21268199    -0.11300
C1192       C  0.47626223  0.62881964  0.21081973    -0.09700
H1193       H  0.48151575  0.60373445  0.12677575     0.08200
H1194       H  0.44597890  0.60399947  0.13051582     0.11900
H1195       H  0.44908822  0.63640895  0.23686213     0.11700
H1196       H  0.48443639  0.63553296  0.23391399     0.08200
C1197       C  0.63183407  0.63793255  0.97943253    -0.10900
C1198       C  0.62564829  0.62200059  0.95735430     0.06300
C1199       C  0.61743097  0.60577777  0.97604890    -0.09600
C1200       C  0.61563691  0.60547287  0.01612543    -0.11300
C1201       C  0.62193049  0.62143829  0.03814720    -0.01100
C1202       C  0.62997577  0.63767757  0.01924139    -0.10200
C1203       C  0.62722970  0.62269036  0.91490411     0.06300
H1204       H  0.61262291  0.59322053  0.95970165     0.08200
H1205       H  0.60946072  0.59274870  0.02982332     0.11700
H1206       H  0.63502331  0.65026585  0.03521951     0.11900
H1207       H  0.63787097  0.65076422  0.96587038     0.08200
C1208       C  0.61180023  0.61598791  0.89215601    -0.10900
C1209       C  0.61282863  0.61715084  0.85231053    -0.10200
C1210       C  0.62934789  0.62502768  0.83400850    -0.01100
C1211       C  0.64485840  0.63174118  0.85669232    -0.11300
C1212       C  0.64379052  0.63060695  0.89681799    -0.09700
H1213       H  0.59873429  0.61014236  0.90519309     0.08200
H1214       H  0.60055389  0.61180768  0.83584611     0.11900
H1215       H  0.65780198  0.63774971  0.84349058     0.11700
H1216       H  0.65599533  0.63575233  0.91371182     0.08200
C1217       C  0.63696976  0.60895911  0.47651693    -0.10900
C1218       C  0.62634134  0.62341167  0.45720575     0.06300
C1219       C  0.61548599  0.63691303  0.47870645    -0.09600
C1220       C  0.61519501  0.63595771  0.51870456    -0.11300
C1221       C  0.62564242  0.62138833  0.53810407    -0.01100
C1222       C  0.63656337  0.60789910  0.51660078    -0.10200
C1223       C  0.62633592  0.62432156  0.41473792     0.06300
H1224       H  0.60737608  0.64835364  0.46456843     0.08200
H1225       H  0.60673864  0.64665755  0.53443447     0.11700
H1226       H  0.64490046  0.59662489  0.53073365     0.11900
H1227       H  0.64536241  0.59829297  0.46056757     0.08200
C1228       C  0.64371959  0.62208753  0.39393537    -0.10900
C1229       C  0.64362024  0.62289346  0.35385166    -0.10200
C1230       C  0.62613735  0.62595852  0.33380129    -0.01100
C1231       C  0.60876285  0.62824933  0.35468188    -0.11300
C1232       C  0.60887175  0.62742883  0.39472175    -0.09700
H1233       H  0.65740867  0.61990143  0.40870014     0.08200
H1234       H  0.65725334  0.62112959  0.33857449     0.11900
H1235       H  0.59502566  0.63044024  0.34009120     0.11700
H1236       H  0.59522121  0.62893350  0.41005626     0.08200
C1237       C  0.61394064  0.47929182  0.25338031    -0.10900
C1238       C  0.62993056  0.49154632  0.26075002     0.06300
C1239       C  0.64537525  0.48417549  0.28312905    -0.09600
C1240       C  0.64500349  0.46496141  0.29682314    -0.11300
C1241       C  0.62931609  0.45259299  0.28802594    -0.01100
C1242       C  0.61371476  0.46008678  0.26653615    -0.10200
C1243       C  0.63036470  0.51183037  0.24506908     0.06300
H1244       H  0.65805231  0.49303092  0.28918650     0.08200
H1245       H  0.65731339  0.45957440  0.31304628     0.11700
H1246       H  0.60130319  0.45100659  0.25954781     0.11900
H1247       H  0.60149585  0.48450103  0.23737804     0.08200
C1248       C  0.63923405  0.52704522  0.26577130    -0.10900
C1249       C  0.63910302  0.54609503  0.25167899    -0.10200
C1250       C  0.62988248  0.55058604  0.21670117    -0.01100
C1251       C  0.62119442  0.53543084  0.19568127    -0.11300
C1252       C  0.62158551  0.51627111  0.20951242    -0.09700
H1253       H  0.64586787  0.52439422  0.29344339     0.08200
H1254       H  0.64582089  0.55743853  0.26884674     0.11900
H1255       H  0.61410171  0.53837132  0.16854950     0.11700
H1256       H  0.61501704  0.50492912  0.19217341     0.08200
C1257       C  0.97915647  0.60916464  0.53193307    -0.10900
C1258       C  0.98923398  0.61775497  0.56280186     0.06300
C1259       C  0.97842615  0.62685328  0.59214305    -0.09600
C1260       C  0.95810079  0.62766059  0.59030498    -0.11300
C1261       C  0.94807392  0.61926123  0.55922062    -0.01100
C1262       C  0.95883631  0.60984783  0.53023857    -0.10200
C1263       C  0.01091235  0.61761701  0.56389372     0.06300
H1264       H  0.98566716  0.63327183  0.61672628     0.08200
H1265       H  0.95023964  0.63479605  0.61335637     0.11700
H1266       H  0.95157258  0.60318593  0.50591669     0.11900
H1267       H  0.98697670  0.60226316  0.50856664     0.08200
C1268       C  0.02147112  0.60143224  0.55031056    -0.10900
C1269       C  0.04182355  0.60163675  0.55009358    -0.10200
C1270       C  0.05209126  0.61790025  0.56399539    -0.01100
C1271       C  0.04161416  0.63395301  0.57811836    -0.11300
C1272       C  0.02125936  0.63387388  0.57781513    -0.09700
H1273       H  0.01401562  0.58852753  0.54004403     0.08200
H1274       H  0.04954016  0.58896693  0.53940420     0.11900
H1275       H  0.04916270  0.64674524  0.58870688     0.11700
H1276       H  0.01364028  0.64673088  0.58781245     0.08200
C1277       C  0.76786882  0.63105340  0.59518771    -0.10900
C1278       C  0.75995495  0.61424791  0.61203644     0.06300
C1279       C  0.77107373  0.59709276  0.61259371    -0.09600
C1280       C  0.79006471  0.59696075  0.59810886    -0.11300
C1281       C  0.79821847  0.61389239  0.58207864    -0.01100
C1282       C  0.78676054  0.63082899  0.57999212    -0.10200
C1283       C  0.74014795  0.61455490  0.62899038     0.06300
H1284       H  0.76526371  0.58393421  0.62532615     0.08200
H1285       H  0.79851029  0.58367935  0.60008996     0.11700
H1286       H  0.79266570  0.64411805  0.56799547     0.11900
H1287       H  0.75944623  0.64437413  0.59395630     0.08200
C1288       C  0.73467367  0.62912747  0.65535929    -0.10900
C1289       C  0.71575524  0.62959912  0.67053798    -0.10200
C1290       C  0.70191150  0.61563502  0.65918451    -0.01100
C1291       C  0.70764640  0.60082403  0.63342682    -0.11300
C1292       C  0.72654317  0.60024622  0.61867750    -0.09700
H1293       H  0.74503956  0.64017955  0.66409683     0.08200
H1294       H  0.71182342  0.64118663  0.69024095     0.11900
H1295       H  0.69739640  0.58981495  0.62397107     0.11700
H1296       H  0.73039592  0.58889139  0.59836963     0.08200
C1297       C  0.97424626  0.61828673  0.09142854    -0.10900
C1298       C  0.98503891  0.62850120  0.06375112     0.06300
C1299       C  0.97507222  0.63827783  0.03437502    -0.09600
C1300       C  0.95472165  0.63784686  0.03262604    -0.11300
C1301       C  0.94384304  0.62734106  0.05987030    -0.01100
C1302       C  0.95386174  0.61756288  0.08932331    -0.10200
C1303       C  0.00665917  0.62835235  0.06442857     0.06300
H1304       H  0.98307303  0.64631874  0.01279301     0.08200
H1305       H  0.94751585  0.64559910  0.00963148     0.11700
H1306       H  0.94594484  0.60942824  0.11086821     0.11900
H1307       H  0.98162491  0.61052119  0.11419619     0.08200
C1308       C  0.01702948  0.63374384  0.09760323    -0.10900
C1309       C  0.03747142  0.63362230  0.09769984    -0.10200
C1310       C  0.04788548  0.62767547  0.06487874    -0.01100
C1311       C  0.03741291  0.62215530  0.03188408    -0.11300
C1312       C  0.01706672  0.62268031  0.03155421    -0.09700
H1313       H  0.00930314  0.63823930  0.12326739     0.08200
H1314       H  0.04511500  0.63787951  0.12359472     0.11900
H1315       H  0.04496795  0.61753127  0.00611110     0.11700
H1316       H  0.00940568  0.61834962  0.00571650     0.08200
C1317       C  0.87903268  0.63927775  0.76280331    -0.10900
C1318       C  0.86913428  0.62552080  0.78535051     0.06300
C1319       C  0.86103557  0.60904698  0.76722173    -0.09600
C1320       C  0.86270092  0.60647848  0.72747005    -0.11300
C1321       C  0.87257437  0.62029085  0.70501775    -0.01100
C1322       C  0.88078804  0.63666482  0.72321349    -0.10200
C1323       C  0.86757196  0.62824976  0.82763352     0.06300
H1324       H  0.85358805  0.59800154  0.78380029     0.08200
H1325       H  0.85617139  0.59373671  0.71433053     0.11700
H1326       H  0.88838066  0.64768216  0.70679191     0.11900
H1327       H  0.88518139  0.65228178  0.77563849     0.08200
C1328       C  0.88320498  0.63617866  0.84853528    -0.10900
C1329       C  0.88210147  0.63818530  0.88836308    -0.10200
C1330       C  0.86540544  0.63214732  0.90840308    -0.01100
C1331       C  0.84957880  0.62460855  0.88751522    -0.11300
C1332       C  0.85062928  0.62273685  0.84755230    -0.09700
H1333       H  0.89658120  0.64032989  0.83427645     0.08200
H1334       H  0.89460506  0.64395070  0.90354816     0.11900
H1335       H  0.83647632  0.61987822  0.90208145     0.11700
H1336       H  0.83817748  0.61693613  0.83227479     0.08200
C1337       C  0.85795709  0.63526456  0.26582205    -0.10900
C1338       C  0.86601068  0.61917174  0.28481214     0.06300
C1339       C  0.87505477  0.60446221  0.26288300    -0.09600
C1340       C  0.87628323  0.60600363  0.22288621    -0.11300
C1341       C  0.86850742  0.62230121  0.20402836    -0.01100
C1342       C  0.85918766  0.63681267  0.22597194    -0.10200
C1343       C  0.86590306  0.61837101  0.32742995     0.06300
H1344       H  0.88118964  0.59175078  0.27667121     0.08200
H1345       H  0.88336894  0.59448459  0.20679264     0.11700
H1346       H  0.85291637  0.64951998  0.21240017     0.11900
H1347       H  0.85115044  0.64696920  0.28185724     0.08200
C1348       C  0.88253486  0.61208040  0.34719406    -0.10900
C1349       C  0.88308906  0.61246040  0.38720417    -0.10200
C1350       C  0.86704217  0.61919978  0.40858189    -0.01100
C1351       C  0.85025209  0.62524230  0.38892367    -0.11300
C1352       C  0.84968094  0.62480419  0.34872516    -0.09700
H1353       H  0.89537916  0.60735626  0.33171088     0.08200
H1354       H  0.89627912  0.60769255  0.40136533     0.11900
H1355       H  0.83758937  0.63032128  0.40455878     0.11700
H1356       H  0.83655106  0.62951923  0.33428879     0.08200
C1357       C  0.77026869  0.63499583  0.13607108    -0.10900
C1358       C  0.75557953  0.62755310  0.11235110     0.06300
C1359       C  0.76029843  0.62135906  0.07494489    -0.09600
C1360       C  0.77954995  0.62238362  0.06169464    -0.11300
C1361       C  0.79424861  0.63004427  0.08540282    -0.01100
C1362       C  0.78934110  0.63638515  0.12266384    -0.10200
C1363       C  0.73528519  0.62702020  0.12639218     0.06300
H1364       H  0.74911369  0.61556876  0.05618987     0.08200
H1365       H  0.78290892  0.61731514  0.03296061     0.11700
H1366       H  0.80033291  0.64219940  0.14182309     0.11900
H1367       H  0.76690838  0.64003748  0.16483797     0.08200
C1368       C  0.73068304  0.61834768  0.16177730    -0.10900
C1369       C  0.71150637  0.61848670  0.17547772    -0.10200
C1370       C  0.69671028  0.62759836  0.15426715    -0.01100
C1371       C  0.70148616  0.63641354  0.11902152    -0.11300
C1372       C  0.72052775  0.63599940  0.10514077    -0.09700
H1373       H  0.74192006  0.61135294  0.17862441     0.08200
H1374       H  0.70827993  0.61151814  0.20260194     0.11900
H1375       H  0.69045542  0.64352153  0.10183979     0.11700
H1376       H  0.72381509  0.64299533  0.07805694     0.08200
C1377       C  0.98087097  0.36439374  0.91381768    -0.10900
C1378       C  0.99169197  0.37984069  0.92954344     0.06300
C1379       C  0.98182162  0.39594431  0.94510978    -0.09600
C1380       C  0.96149888  0.39650181  0.94544530    -0.11300
C1381       C  0.95062066  0.38108051  0.92971089    -0.01100
C1382       C  0.96051668  0.36507399  0.91362375    -0.10200
C1383       C  0.01322235  0.37911346  0.93041301     0.06300
H1384       H  0.98985126  0.40795086  0.95771587     0.08200
H1385       H  0.95430054  0.40903473  0.95799846     0.11700
H1386       H  0.95252677  0.35294152  0.90140466     0.11900
H1387       H  0.98817687  0.35186912  0.90146210     0.08200
C1388       C  0.02289459  0.36241936  0.94369491    -0.10900
C1389       C  0.04320045  0.36214190  0.94640913    -0.10200
C1390       C  0.05420229  0.37842852  0.93520559    -0.01100
C1391       C  0.04452471  0.39496513  0.92116053    -0.11300
C1392       C  0.02422141  0.39535976  0.91908767    -0.09700
H1393       H  0.01470989  0.34976100  0.95282584     0.08200
H1394       H  0.05029965  0.34916524  0.95712833     0.11900
H1395       H  0.05263927  0.40773394  0.91238574     0.11700
H1396       H  0.01708602  0.40834835  0.90851510     0.08200
C1397       C  0.77299662  0.39524480  0.87334511    -0.10900
C1398       C  0.76173371  0.37860343  0.88093041     0.06300
C1399       C  0.77003820  0.36349884  0.90272062    -0.09600
C1400       C  0.78918548  0.36512255  0.91666952    -0.11300
C1401       C  0.80044802  0.38176395  0.90864796    -0.01100
C1402       C  0.79204786  0.39679197  0.88690717    -0.10200
C1403       C  0.74124187  0.37762308  0.86693100     0.06300
H1404       H  0.76166242  0.35057053  0.90929843     0.08200
H1405       H  0.79530761  0.35319509  0.93298971     0.11700
H1406       H  0.80028891  0.40976331  0.87997265     0.11900
H1407       H  0.76713281  0.40705079  0.85632527     0.08200
C1408       C  0.72930483  0.39414488  0.87010337    -0.10900
C1409       C  0.71023117  0.39387887  0.85645234    -0.10200
C1410       C  0.70240675  0.37709486  0.83904736    -0.01100
C1411       C  0.71431252  0.36047393  0.83559505    -0.11300
C1412       C  0.73353664  0.36070649  0.84964658    -0.09700
H1413       H  0.73466405  0.40730987  0.88367316     0.08200
H1414       H  0.70152706  0.40693519  0.85982779     0.11900
H1415       H  0.70868147  0.34725433  0.82269208     0.11700
H1416       H  0.74244823  0.34777172  0.84658934     0.08200
C1417       C  0.88716761  0.48617752  0.98711841    -0.10900
C1418       C  0.86966645  0.49648156  0.98216327     0.06300
C1419       C  0.85450586  0.48753070  0.96129178    -0.09600
C1420       C  0.85665878  0.46859937  0.94667322    -0.11300
C1421       C  0.87390148  0.45810929  0.95300772    -0.01100
C1422       C  0.88922008  0.46721868  0.97293386    -0.10200
C1423       C  0.86741900  0.51653175  0.99831415     0.06300
H1424       H  0.84075717  0.49491668  0.95717695     0.08200
H1425       H  0.84450820  0.46186552  0.93187001     0.11700
H1426       H  0.90273301  0.45955027  0.97810636     0.11900
H1427       H  0.89934981  0.49275229  0.00206741     0.08200
C1428       C  0.87604478  0.52173670  0.03363427    -0.10900
C1429       C  0.87506438  0.54094122  0.04734243    -0.10200
C1430       C  0.86521381  0.55530968  0.02632819    -0.01100
C1431       C  0.85594854  0.54992619  0.99185082    -0.11300
C1432       C  0.85712799  0.53084368  0.97794788    -0.09700
H1433       H  0.88368151  0.51099930  0.05059147     0.08200
H1434       H  0.88217115  0.54457964  0.07420152     0.11900
H1435       H  0.84831285  0.56063873  0.97480508     0.11700
H1436       H  0.85049624  0.52749929  0.95049381     0.08200
C1437       C  0.98352214  0.38572671  0.44652990    -0.10900
C1438       C  0.99411155  0.36923119  0.43502283     0.06300
C1439       C  0.98400840  0.35268102  0.42191337    -0.09600
C1440       C  0.96362036  0.35267885  0.42029174    -0.11300
C1441       C  0.95305045  0.36907678  0.43261885    -0.01100
C1442       C  0.96321556  0.38558176  0.44568524    -0.10200
C1443       C  0.01564223  0.36942262  0.43700301     0.06300
H1444       H  0.99190778  0.33983389  0.41265866     0.08200
H1445       H  0.95612228  0.33975899  0.41021118     0.11700
H1446       H  0.95543267  0.39846105  0.45516123     0.11900
H1447       H  0.99097423  0.39861775  0.45690178     0.08200
C1448       C  0.02614091  0.38516656  0.42183973    -0.10900
C1449       C  0.04642705  0.38563736  0.42424520    -0.10200
C1450       C  0.05665642  0.37047038  0.44230985    -0.01100
C1451       C  0.04611323  0.35478860  0.45782327    -0.11300
C1452       C  0.02579373  0.35420116  0.45492550    -0.09700
H1453       H  0.01862702  0.39704584  0.40777892     0.08200
H1454       H  0.05409157  0.39794160  0.41205510     0.11900
H1455       H  0.05357246  0.34288142  0.47188222     0.11700
H1456       H  0.01797072  0.34201670  0.46719467     0.08200
C1457       C  0.85528834  0.36987679  0.64128467    -0.10900
C1458       C  0.87277373  0.37193317  0.66193595     0.06300
C1459       C  0.89048421  0.37173024  0.64185896    -0.09600
C1460       C  0.89077765  0.36984591  0.60203201    -0.11300
C1461       C  0.87336512  0.36797798  0.58114253    -0.01100
C1462       C  0.85558620  0.36777122  0.60117921    -0.10200
C1463       C  0.87288557  0.37444314  0.70425929     0.06300
H1464       H  0.90416174  0.37350522  0.65694274     0.08200
H1465       H  0.90472382  0.37012980  0.58750572     0.11700
H1466       H  0.84193842  0.36654574  0.58580373     0.11900
H1467       H  0.84143971  0.36987355  0.65616844     0.08200
C1468       C  0.86037240  0.38780336  0.72245222    -0.10900
C1469       C  0.86154493  0.39092126  0.76219936    -0.10200
C1470       C  0.87510462  0.38056081  0.78445116    -0.01100
C1471       C  0.88740142  0.36703665  0.76614747    -0.11300
C1472       C  0.88633947  0.36406584  0.72657842    -0.09700
H1473       H  0.84997153  0.39610022  0.70582755     0.08200
H1474       H  0.85171407  0.40125731  0.77554639     0.11900
H1475       H  0.89790723  0.35869125  0.78242585     0.11700
H1476       H  0.89603097  0.35354676  0.71336927     0.08200
C1477       C  0.89347878  0.38346762  0.13994450    -0.10900
C1478       C  0.87646636  0.38206656  0.16207903     0.06300
C1479       C  0.85834654  0.38107585  0.14337169    -0.09600
C1480       C  0.85731152  0.38121534  0.10319055    -0.11300
C1481       C  0.87436618  0.38273882  0.08111565    -0.01100
C1482       C  0.89242896  0.38396618  0.09994239    -0.10200
C1483       C  0.87775139  0.38153424  0.20455279     0.06300
H1484       H  0.84501935  0.37988065  0.15985123     0.08200
H1485       H  0.84320862  0.38032514  0.08941933     0.11700
H1486       H  0.90583522  0.38507727  0.08368158     0.11900
H1487       H  0.90759858  0.38440417  0.15364595     0.08200
C1488       C  0.89127240  0.36927511  0.22270314    -0.10900
C1489       C  0.89240401  0.36857764  0.26276334    -0.10200
C1490       C  0.88021881  0.38034343  0.28550636    -0.01100
C1491       C  0.86694186  0.39288072  0.26727770    -0.11300
C1492       C  0.86561475  0.39335358  0.22721234    -0.09700
H1493       H  0.90073001  0.35994088  0.20585281     0.08200
H1494       H  0.90275059  0.35875821  0.27593189     0.11900
H1495       H  0.85726411  0.40204150  0.28400312     0.11700
H1496       H  0.85520790  0.40306060  0.21389629     0.08200
C1497       C  0.77734635  0.39414699  0.37309549    -0.10900
C1498       C  0.76494184  0.37818618  0.37906148     0.06300
C1499       C  0.77197155  0.36202322  0.39953583    -0.09600
C1500       C  0.79111119  0.36182330  0.41350444    -0.11300
C1501       C  0.80362048  0.37768971  0.40684308    -0.01100
C1502       C  0.79645098  0.39387944  0.38666415    -0.10200
C1503       C  0.74473129  0.37862968  0.36401794     0.06300
H1504       H  0.76263621  0.34960785  0.40486970     0.08200
H1505       H  0.79624054  0.34908409  0.42873635     0.11700
H1506       H  0.80569259  0.40631599  0.38091594     0.11900
H1507       H  0.77237914  0.40672811  0.35715699     0.08200
C1508       C  0.73337550  0.39550056  0.36839026    -0.10900
C1509       C  0.71433839  0.39610364  0.35448523    -0.10200
C1510       C  0.70621481  0.37990620  0.33555886    -0.01100
C1511       C  0.71768403  0.36312976  0.33043659    -0.11300
C1512       C  0.73673316  0.36245474  0.34478798    -0.09700
H1513       H  0.73909930  0.40812594  0.38332037     0.08200
H1514       H  0.70586235  0.40921964  0.35906200     0.11900
H1515       H  0.71175725  0.35035678  0.31633652     0.11700
H1516       H  0.74525659  0.34933234  0.34069801     0.08200
C1517       C  0.88601767  0.46905799  0.52154778    -0.10900
C1518       C  0.87902007  0.48412005  0.49829349     0.06300
C1519       C  0.87253840  0.47978294  0.46094733    -0.09600
C1520       C  0.87295001  0.46065034  0.44709675    -0.11300
C1521       C  0.88017048  0.44556525  0.47014892    -0.01100
C1522       C  0.88674494  0.44997977  0.50750101    -0.10200
C1523       C  0.87914114  0.50448629  0.51215093     0.06300
H1524       H  0.86703319  0.49122897  0.44257723     0.08200
H1525       H  0.86775121  0.45769018  0.41830723     0.11700
H1526       H  0.89226895  0.43863752  0.52609373     0.11900
H1527       H  0.89123781  0.47212182  0.55029286     0.08200
C1528       C  0.87048115  0.50974161  0.54730176    -0.10900
C1529       C  0.86981285  0.52934778  0.55880083    -0.10200
C1530       C  0.87810113  0.54386597  0.53555016    -0.01100
C1531       C  0.88733179  0.53832239  0.50109135    -0.11300
C1532       C  0.88773375  0.51891420  0.48946863    -0.09700
H1533       H  0.86378591  0.49875957  0.56525193     0.08200
H1534       H  0.86265401  0.53315335  0.58550636     0.11900
H1535       H  0.89393948  0.54905677  0.48245489     0.11700
H1536       H  0.89472438  0.51514822  0.46254786     0.08200
C1537       C  0.13144049  0.22692679  0.97545757    -0.10900
C1538       C  0.12482122  0.23778134  0.94391898     0.06300
C1539       C  0.11833758  0.22787714  0.91096587    -0.09600
C1540       C  0.11838494  0.20753627  0.90956712    -0.11300
C1541       C  0.12523045  0.19663495  0.94085773    -0.01100
C1542       C  0.13182291  0.20652979  0.97380577    -0.10200
C1543       C  0.12507480  0.25938629  0.94475072     0.06300
H1544       H  0.11306016  0.23590668  0.88635607     0.08200
H1545       H  0.11323618  0.20033283  0.88377734     0.11700
H1546       H  0.13707139  0.19849850  0.99843204     0.11900
H1547       H  0.13663678  0.23424210  0.00108502     0.08200
C1548       C  0.11737338  0.26981089  0.97608489    -0.10900
C1549       C  0.11738366  0.29024486  0.97613111    -0.10200
C1550       C  0.12538394  0.30059341  0.94509240    -0.01100
C1551       C  0.13319524  0.29006353  0.91396488    -0.11300
C1552       C  0.13294172  0.26972961  0.91371678    -0.09700
H1553       H  0.11110695  0.26214065  0.00024954     0.08200
H1554       H  0.11128547  0.29792488  0.00054562     0.11900
H1555       H  0.13946270  0.29754226  0.88957112     0.11700
H1556       H  0.13911472  0.26204430  0.88936795     0.08200
C1557       C  0.13616988  0.22163158  0.47473298    -0.10900
C1558       C  0.13134024  0.23233094  0.44173618     0.06300
C1559       C  0.12614749  0.22226436  0.40809871    -0.09600
C1560       C  0.12553937  0.20191125  0.40756596    -0.11300
C1561       C  0.13050846  0.19117745  0.44042291    -0.01100
C1562       C  0.13598165  0.20122119  0.47395637    -0.10200
C1563       C  0.13160676  0.25393856  0.44226753     0.06300
H1564       H  0.12224760  0.23017612  0.38236830     0.08200
H1565       H  0.12134755  0.19454259  0.38128208     0.11700
H1566       H  0.13980209  0.19329815  0.49971662     0.11900
H1567       H  0.14031014  0.22907729  0.50096109     0.08200
C1568       C  0.12223541  0.26433389  0.47175306    -0.10900
C1569       C  0.12204784  0.28472863  0.47163034    -0.10200
C1570       C  0.13142221  0.29515780  0.44222046    -0.01100
C1571       C  0.14096968  0.28468744  0.41294055    -0.11300
C1572       C  0.14096413  0.26430965  0.41286913    -0.09700
H1573       H  0.11476502  0.25665700  0.49454446     0.08200
H1574       H  0.11453723  0.29231848  0.49457491     0.11900
H1575       H  0.14836759  0.29223007  0.38989084     0.11700
H1576       H  0.14841048  0.25661907  0.38995768     0.08200
C1577       C  0.14401183  0.11830643  0.64784260    -0.10900
C1578       C  0.12591639  0.11950856  0.66663391     0.06300
C1579       C  0.10888560  0.12107112  0.64467406    -0.09600
C1580       C  0.10984504  0.12113292  0.60472464    -0.11300
C1581       C  0.12787876  0.11990569  0.58581252    -0.01100
C1582       C  0.14500407  0.11869752  0.60766989    -0.10200
C1583       C  0.12458399  0.11904355  0.70901734     0.06300
H1584       H  0.09475977  0.12184955  0.65844298     0.08200
H1585       H  0.09641237  0.12211392  0.58855583     0.11700
H1586       H  0.15905877  0.11759642  0.59371708     0.11900
H1587       H  0.15735508  0.11720029  0.66424746     0.08200
C1588       C  0.13480523  0.10500246  0.73017763    -0.10900
C1589       C  0.13299790  0.10428175  0.77014076    -0.10200
C1590       C  0.12109232  0.11773364  0.78968066    -0.01100
C1591       C  0.11092144  0.13179048  0.76839913    -0.11300
C1592       C  0.11258469  0.13237597  0.72848586    -0.09700
H1593       H  0.14399310  0.09444526  0.71574578     0.08200
H1594       H  0.14115758  0.09338297  0.78576375     0.11900
H1595       H  0.10173675  0.14242861  0.78259620     0.11700
H1596       H  0.10466071  0.14342924  0.71280484     0.08200
C1597       C  0.11093586  0.12890732  0.23071993    -0.10900
C1598       C  0.12490008  0.11884097  0.20891541     0.06300
C1599       C  0.13810001  0.10647086  0.22769326    -0.09600
C1600       C  0.13728480  0.10418414  0.26763032    -0.11300
C1601       C  0.12346730  0.11449710  0.28946227    -0.01100
C1602       C  0.11030948  0.12686643  0.27054738    -0.10200
C1603       C  0.12516559  0.12084469  0.16657954     0.06300
H1604       H  0.14887927  0.09841799  0.21140915     0.08200
H1605       H  0.14773330  0.09472045  0.28150429     0.11700
H1606       H  0.09953768  0.13505523  0.28659695     0.11900
H1607       H  0.10064971  0.13858959  0.21694163     0.08200
C1608       C  0.10773656  0.11924414  0.14586003    -0.10900
C1609       C  0.10775444  0.12062974  0.10594308    -0.10200
C1610       C  0.12518571  0.12385278  0.08571913    -0.01100
C1611       C  0.14262131  0.12591194  0.10647574    -0.11300
C1612       C  0.14262497  0.12426860  0.14660107    -0.09700
H1613       H  0.09410862  0.11649194  0.16054136     0.08200
H1614       H  0.09405417  0.11900710  0.09087326     0.11900
H1615       H  0.15627298  0.12835048  0.09168539     0.11700
H1616       H  0.15622921  0.12573383  0.16206150     0.08200
C1617       C  0.39008221  0.27389120  0.78940247    -0.10900
C1618       C  0.37480942  0.26335388  0.80648260     0.06300
C1619       C  0.35963304  0.27365713  0.82447722    -0.09600
C1620       C  0.36003891  0.29393126  0.82665433    -0.11300
C1621       C  0.37548895  0.30444875  0.81039886    -0.01100
C1622       C  0.39036714  0.29427534  0.79118949    -0.10200
C1623       C  0.37480166  0.24171013  0.80677474     0.06300
H1624       H  0.34738833  0.26602600  0.83699446     0.08200
H1625       H  0.34817187  0.30139031  0.84098096     0.11700
H1626       H  0.40243292  0.30204450  0.77831317     0.11900
H1627       H  0.40204807  0.26638192  0.77553954     0.08200
C1628       C  0.38095178  0.23087955  0.77461359    -0.10900
C1629       C  0.38036663  0.21048009  0.77514455     0.09000
C1630       C  0.37345623  0.20057904  0.80770785    -0.01100
C1631       C  0.36757150  0.21141224  0.83992087    -0.11300
C1632       C  0.36836811  0.23169912  0.83956242    -0.09700
H1633       H  0.38584886  0.23816228  0.74881924     0.08200
H1634       H  0.38497339  0.20247348  0.74987085     0.11900
H1635       H  0.36247879  0.20418722  0.86564295     0.11700
H1636       H  0.36401862  0.23956191  0.86517377     0.08200
C1637       C  0.23003638  0.12924511  0.91746069    -0.10900
C1638       C  0.23494138  0.12258412  0.88030592     0.06300
C1639       C  0.22010824  0.11460671  0.85729979    -0.09600
C1640       C  0.20101637  0.11329826  0.87092728    -0.11300
C1641       C  0.19609047  0.12023595  0.90773693    -0.01100
C1642       C  0.21079739  0.12826266  0.93084055    -0.10200
C1643       C  0.25531374  0.12413776  0.86540283     0.06300
H1644       H  0.22310301  0.10970997  0.82829614     0.08200
H1645       H  0.18997419  0.10727890  0.85214854     0.11700
H1646       H  0.20745497  0.13365132  0.95937706     0.11900
H1647       H  0.24106435  0.13511510  0.93639611     0.08200
C1648       C  0.26732690  0.13981411  0.87629303    -0.10900
C1649       C  0.28648106  0.14113874  0.86292499    -0.10200
C1650       C  0.29410763  0.12696461  0.83783769    -0.01100
C1651       C  0.28204950  0.11150868  0.82619943    -0.11300
C1652       C  0.26294465  0.11003201  0.83998732    -0.09700
H1653       H  0.26192561  0.15121681  0.89504032     0.08200
H1654       H  0.29535783  0.15326482  0.87241323     0.11900
H1655       H  0.28755846  0.10020743  0.80729294     0.11700
H1656       H  0.25434275  0.09756336  0.83137373     0.08200
C1657       C  0.39073829  0.27460285  0.32002871    -0.10900
C1658       C  0.37379813  0.26454219  0.30904634     0.06300
C1659       C  0.35720072  0.27533993  0.29880062    -0.09600
C1660       C  0.35753953  0.29574771  0.29961326    -0.11300
C1661       C  0.37437668  0.30577114  0.31135018    -0.01100
C1662       C  0.39097470  0.29497341  0.32146262    -0.10200
C1663       C  0.37340009  0.24286932  0.30888853     0.06300
H1664       H  0.34399281  0.26798421  0.28990175     0.08200
H1665       H  0.34451471  0.30368000  0.29175630     0.11700
H1666       H  0.40418934  0.30229523  0.33044343     0.11900
H1667       H  0.40369862  0.26669108  0.32834645     0.08200
C1668       C  0.38908386  0.23213622  0.29377009    -0.10900
C1669       C  0.38877786  0.21174048  0.29395562    -0.10200
C1670       C  0.37290692  0.20161977  0.30977969    -0.01100
C1671       C  0.35727530  0.21235481  0.32511431    -0.11300
C1672       C  0.35745681  0.23274417  0.32441233    -0.09700
H1673       H  0.40151156  0.23953543  0.28140499     0.08200
H1674       H  0.40106944  0.20388823  0.28206169     0.11900
H1675       H  0.34481988  0.20498477  0.33744807     0.11700
H1676       H  0.34526093  0.24061525  0.33663573     0.08200
C1677       C  0.35722112  0.11212810  0.60086144    -0.10900
C1678       C  0.36974115  0.12490342  0.58134880     0.06300
C1679       C  0.38032592  0.13878676  0.60239333    -0.09600
C1680       C  0.37866749  0.13971337  0.64227330    -0.11300
C1681       C  0.36618619  0.12694158  0.66193651    -0.01100
C1682       C  0.35532949  0.11324196  0.64083338    -0.10200
C1683       C  0.37137193  0.12426456  0.53902196     0.06300
H1684       H  0.39010871  0.14875653  0.58797675     0.08200
H1685       H  0.38724034  0.15040402  0.65776363     0.11700
H1686       H  0.34573020  0.10311482  0.65528502     0.11900
H1687       H  0.34876006  0.10144256  0.58512379     0.08200
C1688       C  0.37433857  0.10656344  0.51943501    -0.10900
C1689       C  0.37558476  0.10619761  0.47927513    -0.10200
C1690       C  0.37350358  0.12348871  0.45818857    -0.01100
C1691       C  0.37076570  0.14116149  0.47798023    -0.11300
C1692       C  0.36983395  0.14155578  0.51793047    -0.09700
H1693       H  0.37574596  0.09306912  0.53522191     0.08200
H1694       H  0.37767759  0.09238433  0.46471839     0.11900
H1695       H  0.36922715  0.15474371  0.46252745     0.11700
H1696       H  0.36746496  0.15536174  0.53236660     0.08200
C1697       C  0.37340918  0.10705714  0.01970801    -0.10900
C1698       C  0.37128739  0.12487363  0.03934390     0.06300
C1699       C  0.36999355  0.14216249  0.01809692    -0.09600
C1700       C  0.37037255  0.14163959  0.97807435    -0.11300
C1701       C  0.37222889  0.12383158  0.95833336    -0.01100
C1702       C  0.37401463  0.10654941  0.97952514    -0.10200
C1703       C  0.37023041  0.12554826  0.08183598     0.06300
H1704       H  0.36821464  0.15607630  0.03243492     0.08200
H1705       H  0.36905626  0.15522526  0.96254010     0.11700
H1706       H  0.37542319  0.09263027  0.96505833     0.11900
H1707       H  0.37465762  0.09353521  0.03546138     0.08200
C1708       C  0.35871126  0.11213844  0.10210866    -0.10900
C1709       C  0.35754206  0.11302993  0.14217889    -0.10200
C1710       C  0.36805498  0.12721086  0.16272500    -0.01100
C1711       C  0.37949562  0.14065406  0.14237739    -0.11300
C1712       C  0.38050121  0.13988210  0.10237700    -0.09700
H1713       H  0.35046544  0.10108951  0.08692924     0.08200
H1714       H  0.34870551  0.10239310  0.15710245     0.11900
H1715       H  0.38778097  0.15173163  0.15739641     0.11700
H1716       H  0.38959365  0.15031937  0.08750413     0.08200
C1717       C  0.26589923  0.10711302  0.33769216    -0.10900
C1718       C  0.25760149  0.12149780  0.36160042     0.06300
C1719       C  0.26870599  0.13813952  0.37040561    -0.09600
C1720       C  0.28783426  0.13994629  0.35716072    -0.11300
C1721       C  0.29629829  0.12527777  0.33432468    -0.01100
C1722       C  0.28497112  0.10905101  0.32402130    -0.10200
C1723       C  0.23760388  0.11903738  0.37768435     0.06300
H1724       H  0.26267475  0.14978272  0.38777700     0.08200
H1725       H  0.29611104  0.15273364  0.36531959     0.11700
H1726       H  0.29110831  0.09744249  0.30667812     0.11900
H1727       H  0.25793216  0.09399336  0.33055463     0.08200
C1728       C  0.22303727  0.10964561  0.35618022    -0.10900
C1729       C  0.20430236  0.10736796  0.37104802    -0.10200
C1730       C  0.19948021  0.11470064  0.40760705    -0.01100
C1731       C  0.21397412  0.12401581  0.42933092    -0.11300
C1732       C  0.23287241  0.12601549  0.41467878    -0.09700
H1733       H  0.22593996  0.10440701  0.32737864     0.08200
H1734       H  0.19339939  0.10037506  0.35327273     0.11900
H1735       H  0.21069731  0.12979117  0.45759730     0.11700
H1736       H  0.24378311  0.13295980  0.43245974     0.08200
C1737       C  0.35460764  0.77391419  0.69848704    -0.10900
C1738       C  0.37064957  0.76301432  0.68531194     0.06300
C1739       C  0.38730562  0.77308133  0.67261799    -0.09600
C1740       C  0.38778752  0.79344931  0.67256527    -0.11300
C1741       C  0.37175743  0.80427007  0.68579102    -0.01100
C1742       C  0.35521675  0.79429090  0.69899171    -0.10200
C1743       C  0.37002379  0.74128267  0.68468473     0.06300
H1744       H  0.40009915  0.76523763  0.66304376     0.08200
H1745       H  0.40080978  0.80073839  0.66251502     0.11700
H1746       H  0.34256908  0.80225014  0.70899916     0.11900
H1747       H  0.34140965  0.76672837  0.70783037     0.08200
C1748       C  0.36019776  0.73084774  0.71355888    -0.10900
C1749       C  0.35983696  0.71045124  0.71311820    -0.10200
C1750       C  0.36947954  0.69998822  0.68404731    -0.01100
C1751       C  0.37918315  0.71038625  0.65505346    -0.11300
C1752       C  0.37935679  0.73074810  0.65523994    -0.09700
H1753       H  0.35309095  0.73841130  0.73701069     0.08200
H1754       H  0.35232578  0.70287462  0.73598234     0.11900
H1755       H  0.38661702  0.70277966  0.63202459     0.11700
H1756       H  0.38669605  0.73822163  0.63204667     0.08200
C1757       C  0.35323088  0.98253277  0.72409795    -0.10900
C1758       C  0.36895268  0.99178389  0.74266680     0.06300
C1759       C  0.38668191  0.98168987  0.74584125    -0.09600
C1760       C  0.38856920  0.96276690  0.73140373    -0.11300
C1761       C  0.37285664  0.95355422  0.71293737    -0.01100
C1762       C  0.35521117  0.96367809  0.70918133    -0.10200
C1763       C  0.36701921  0.01200409  0.75790713     0.06300
H1764       H  0.39921598  0.98846858  0.75921531     0.08200
H1765       H  0.40235185  0.95531696  0.73475033     0.11700
H1766       H  0.34274063  0.95680013  0.69573369     0.11900
H1767       H  0.33926754  0.98971384  0.72167844     0.08200
C1768       C  0.35596559  0.02587635  0.73792861    -0.10900
C1769       C  0.35473057  0.04505950  0.75110455    -0.10200
C1770       C  0.36467177  0.05098161  0.78447623    -0.01100
C1771       C  0.37550021  0.03709644  0.80490174    -0.11300
C1772       C  0.37658467  0.01779024  0.79187766    -0.09700
H1773       H  0.34868628  0.02208621  0.71134643     0.08200
H1774       H  0.34641209  0.05539522  0.73440052     0.11900
H1775       H  0.38330182  0.04118762  0.83073914     0.11700
H1776       H  0.38495018  0.00741862  0.80837697     0.08200
C1777       C  0.39007495  0.73053670  0.21289034    -0.10900
C1778       C  0.37734454  0.74169020  0.19022016     0.06300
C1779       C  0.36287074  0.73205291  0.16886723    -0.09600
C1780       C  0.36147452  0.71177698  0.16927107    -0.11300
C1781       C  0.37442389  0.70058203  0.19127493    -0.01100
C1782       C  0.38861207  0.71019087  0.21345432    -0.10200
C1783       C  0.37913159  0.76326215  0.18833587     0.06300
H1784       H  0.35252109  0.74020013  0.15184880     0.08200
H1785       H  0.35025704  0.70487184  0.15212975     0.11700
H1786       H  0.39881695  0.70198255  0.23070772     0.11900
H1787       H  0.40146864  0.73748795  0.22948171     0.08200
C1788       C  0.37588230  0.77305122  0.15349551    -0.10900
C1789       C  0.37644278  0.79336283  0.15187225    -0.10200
C1790       C  0.38056143  0.80436994  0.18491327    -0.01100
C1791       C  0.38447162  0.79463482  0.21950862    -0.11300
C1792       C  0.38366039  0.77428605  0.22126018    -0.09700
H1793       H  0.37284503  0.76500079  0.12738600     0.08200
H1794       H  0.37359647  0.80046768  0.12472383     0.11900
H1795       H  0.38756918  0.80277283  0.24550149     0.11700
H1796       H  0.38605172  0.76723336  0.24861652     0.08200
C1797       C  0.38189830  0.89764112  0.89042733    -0.10900
C1798       C  0.37133313  0.88461868  0.91348060     0.06300
C1799       C  0.36022870  0.86995498  0.89521424    -0.09600
C1800       C  0.35987660  0.86831284  0.85508051    -0.11300
C1801       C  0.37093545  0.88102923  0.83239433    -0.01100
C1802       C  0.38184925  0.89574934  0.85054816    -0.10200
C1803       C  0.37225228  0.88610730  0.95625463     0.06300
H1804       H  0.35213972  0.85940649  0.91184404     0.08200
H1805       H  0.35136631  0.85681800  0.84187872     0.11700
H1806       H  0.39029046  0.90601283  0.83383034     0.11900
H1807       H  0.39017389  0.90944610  0.90306908     0.08200
C1808       C  0.38929555  0.89266837  0.97493836    -0.10900
C1809       C  0.39041882  0.89319155  0.01507973    -0.10200
C1810       C  0.37473604  0.88668903  0.03732458    -0.01100
C1811       C  0.35758073  0.88060554  0.01892626    -0.11300
C1812       C  0.35625561  0.88054673  0.97893310    -0.09700
H1813       H  0.40206435  0.89679911  0.95868779     0.08200
H1814       H  0.40383056  0.89782555  0.02868108     0.11900
H1815       H  0.34516471  0.87578010  0.03558693     0.11700
H1816       H  0.34269130  0.87600744  0.96588229     0.08200
C1817       C  0.37987399  0.86527008  0.47693755    -0.10900
C1818       C  0.37387953  0.88165828  0.45601992     0.06300
C1819       C  0.36902579  0.89882114  0.47603960    -0.09600
C1820       C  0.37027885  0.89954762  0.51617412    -0.11300
C1821       C  0.37646635  0.88313796  0.53695799    -0.01100
C1822       C  0.38123135  0.86602038  0.51682072    -0.10200
C1823       C  0.37312997  0.88073158  0.41345388     0.06300
H1824       H  0.36452180  0.91174095  0.46065696     0.08200
H1825       H  0.36640418  0.91292373  0.53089242     0.11700
H1826       H  0.38574414  0.85301438  0.53191383     0.11900
H1827       H  0.38332768  0.85171541  0.46245682     0.08200
C1828       C  0.38781932  0.87088833  0.39308811    -0.10900
C1829       C  0.38723319  0.86963857  0.35315590    -0.10200
C1830       C  0.37196812  0.87826075  0.33246301    -0.01100
C1831       C  0.35720407  0.88810630  0.35274635    -0.11300
C1832       C  0.35780025  0.88935814  0.39287696    -0.09700
H1833       H  0.39999179  0.86436397  0.40802720     0.08200
H1834       H  0.39891345  0.86206388  0.33848209     0.11900
H1835       H  0.34529078  0.89499143  0.33762132     0.11700
H1836       H  0.34617320  0.89687842  0.40781844     0.08200
C1837       C  0.35968760  0.97855160  0.25609422    -0.10900
C1838       C  0.37407663  0.99176274  0.24441567     0.06300
C1839       C  0.38828417  0.98556526  0.21796296    -0.09600
C1840       C  0.38792345  0.96650021  0.20318543    -0.11300
C1841       C  0.37344538  0.95327570  0.21491659    -0.01100
C1842       C  0.35939267  0.95957662  0.24165382    -0.10200
C1843       C  0.37354235  0.01212532  0.25886934     0.06300
H1844       H  0.39944781  0.99556066  0.20830024     0.08200
H1845       H  0.39904188  0.96207886  0.18289166     0.11700
H1846       H  0.34814574  0.94978957  0.25175417     0.11900
H1847       H  0.34867731  0.98290759  0.27669215     0.08200
C1848       C  0.35601039  0.02260538  0.25766489    -0.10900
C1849       C  0.35515118  0.04180404  0.27089760    -0.10200
C1850       C  0.37173744  0.05094372  0.28625749    -0.01100
C1851       C  0.38924348  0.04034651  0.28826323    -0.11300
C1852       C  0.39018505  0.02114553  0.27430828    -0.09700
H1853       H  0.34300185  0.01602796  0.24573888     0.08200
H1854       H  0.34147137  0.04957699  0.26882499     0.11900
H1855       H  0.40230707  0.04708101  0.29957334     0.11700
H1856       H  0.40384244  0.01329787  0.27577798     0.08200
C1857       C  0.14416538  0.76507444  0.57841000    -0.10900
C1858       C  0.12865081  0.75440099  0.56266279     0.06300
C1859       C  0.11258388  0.76443596  0.54749525    -0.09600
C1860       C  0.11206960  0.78477555  0.54793597    -0.11300
C1861       C  0.12750878  0.79544438  0.56399492    -0.01100
C1862       C  0.14354623  0.78540262  0.57929462    -0.10200
C1863       C  0.12905147  0.73284549  0.56263724     0.06300
H1864       H  0.10050069  0.75653282  0.53493132     0.08200
H1865       H  0.09952131  0.79214340  0.53601002     0.11700
H1866       H  0.15570022  0.79326593  0.59170038     0.11900
H1867       H  0.15662777  0.75767858  0.59061179     0.08200
C1868       C  0.14596501  0.72266840  0.55187535    -0.10900
C1869       C  0.14621789  0.70228985  0.55188764    -0.10200
C1870       C  0.12964690  0.69176804  0.56321598    -0.01100
C1871       C  0.11279808  0.70198922  0.57416870    -0.11300
C1872       C  0.11247008  0.72230437  0.57366713    -0.09700
H1873       H  0.15890594  0.73048130  0.54302555     0.08200
H1874       H  0.15941937  0.69477844  0.54346022     0.11900
H1875       H  0.09978672  0.69426831  0.58293560     0.11700
H1876       H  0.09932075  0.72979755  0.58247982     0.08200
C1877       C  0.13481341  0.96807992  0.48582796    -0.10900
C1878       C  0.12810039  0.98317211  0.50970364     0.06300
C1879       C  0.12204396  0.97853029  0.54732513    -0.09600
C1880       C  0.12246436  0.95922237  0.56039259    -0.11300
C1881       C  0.12929157  0.94427168  0.53634066    -0.01100
C1882       C  0.13554581  0.94896189  0.49904969    -0.10200
C1883       C  0.12708068  0.00351269  0.49489955     0.06300
H1884       H  0.11707261  0.98981235  0.56676994     0.08200
H1885       H  0.11761655  0.95601577  0.58929722     0.11700
H1886       H  0.14059750  0.93771676  0.47955467     0.11900
H1887       H  0.13913525  0.97091831  0.45647393     0.08200
C1888       C  0.14108452  0.01057520  0.46877715    -0.10900
C1889       C  0.13991010  0.02958513  0.45447048    -0.10200
C1890       C  0.12485573  0.04206049  0.46631712    -0.01100
C1891       C  0.11080862  0.03497249  0.49218655    -0.11300
C1892       C  0.11185091  0.01594598  0.50612502    -0.09700
H1893       H  0.15320803  0.00155510  0.45989204     0.08200
H1894       H  0.15108382  0.03467685  0.43496672     0.11900
H1895       H  0.09896802  0.04418158  0.50184576     0.11700
H1896       H  0.10056554  0.01094525  0.52544735     0.08200
C1897       C  0.23177169  0.85526200  0.61220764    -0.10900
C1898       C  0.24282598  0.87219891  0.60592828     0.06300
C1899       C  0.23420765  0.88766241  0.58548658    -0.09600
C1900       C  0.21483989  0.88646753  0.57302840    -0.11300
C1901       C  0.20358437  0.86990938  0.58116530    -0.01100
C1902       C  0.21237876  0.85418888  0.60024488    -0.10200
C1903       C  0.26300996  0.87391718  0.62156445     0.06300
H1904       H  0.24215770  0.90101347  0.58035423     0.08200
H1905       H  0.20841597  0.89885989  0.55859462     0.11700
H1906       H  0.20413843  0.84112875  0.60651606     0.11900
H1907       H  0.23803281  0.84284747  0.62680334     0.08200
C1908       C  0.26800144  0.86560626  0.65723234    -0.10900
C1909       C  0.28690662  0.86741944  0.67203876    -0.10200
C1910       C  0.30119648  0.87780076  0.65178733    -0.01100
C1911       C  0.29618914  0.88611307  0.61621131    -0.11300
C1912       C  0.27742236  0.88411871  0.60125240    -0.09700
H1913       H  0.25722918  0.85791632  0.67405076     0.08200
H1914       H  0.29029322  0.86080853  0.69943647     0.11900
H1915       H  0.30690069  0.89394333  0.59945297     0.11700
H1916       H  0.27430867  0.89038238  0.57342355     0.08200
C1917       C  0.11544271  0.77116736  0.07241649    -0.10900
C1918       C  0.13185358  0.76057305  0.06020700     0.06300
C1919       C  0.14819732  0.77094548  0.04681193    -0.09600
C1920       C  0.14819516  0.79137651  0.04638014    -0.11300
C1921       C  0.13194719  0.80184307  0.05975780    -0.01100
C1922       C  0.11554963  0.79147903  0.07248572    -0.10200
C1923       C  0.13172950  0.73885221  0.06183181     0.06300
H1924       H  0.16116071  0.76332201  0.03744950     0.08200
H1925       H  0.16104757  0.79896622  0.03636830     0.11700
H1926       H  0.10266672  0.79908056  0.08241300     0.11900
H1927       H  0.10236026  0.76377911  0.08177505     0.08200
C1928       C  0.12164707  0.72918485  0.09138223    -0.10900
C1929       C  0.12048576  0.70888117  0.09206382    -0.10200
C1930       C  0.12964180  0.69763206  0.06357555    -0.01100
C1931       C  0.14026262  0.70718431  0.03465268    -0.11300
C1932       C  0.14121396  0.72756371  0.03366982    -0.09700
H1933       H  0.11464855  0.73730060  0.11424104     0.08200
H1934       H  0.11245920  0.70199199  0.11509562     0.11900
H1935       H  0.14755051  0.69892356  0.01232666     0.11700
H1936       H  0.14897740  0.73444181  0.01030207     0.08200
C1937       C  0.12232707  0.89017763  0.85605038    -0.10900
C1938       C  0.12937690  0.87416510  0.83501550     0.06300
C1939       C  0.13768578  0.85840964  0.85507258    -0.09600
C1940       C  0.13899948  0.85874393  0.89514681    -0.11300
C1941       C  0.13164726  0.87463062  0.91590315    -0.01100
C1942       C  0.12328899  0.89031767  0.89603317    -0.10200
C1943       C  0.12839682  0.87408892  0.79236057     0.06300
H1944       H  0.14293568  0.84566973  0.83987775     0.08200
H1945       H  0.14525716  0.84638488  0.90994625     0.11700
H1946       H  0.11763668  0.90282747  0.91148626     0.11900
H1947       H  0.11625734  0.90274098  0.84165604     0.08200
C1948       C  0.11262138  0.88267865  0.77283001    -0.10900
C1949       C  0.11206767  0.88290888  0.73265032    -0.10200
C1950       C  0.12709835  0.87425541  0.71130669    -0.01100
C1951       C  0.14275140  0.86558630  0.73077509    -0.11300
C1952       C  0.14347718  0.86564574  0.77074814    -0.09700
H1953       H  0.10058055  0.88903100  0.78854611     0.08200
H1954       H  0.09974984  0.88951997  0.71831148     0.11900
H1955       H  0.15465552  0.85896607  0.71503388     0.11700
H1956       H  0.15605641  0.85931911  0.78465658     0.08200
C1957       C  0.13297721  0.89027549  0.27418756    -0.10900
C1958       C  0.12520449  0.87378821  0.29247790     0.06300
C1959       C  0.11653834  0.85913118  0.27005447    -0.09600
C1960       C  0.11598244  0.86073618  0.23011406    -0.11300
C1961       C  0.12405635  0.87706620  0.21169618    -0.01100
C1962       C  0.13239553  0.89191023  0.23420988    -0.10200
C1963       C  0.12638473  0.87173703  0.33476445     0.06300
H1964       H  0.11060338  0.84617891  0.28335390     0.08200
H1965       H  0.10952575  0.84898843  0.21364577     0.11700
H1966       H  0.13870518  0.90468874  0.22093673     0.11900
H1967       H  0.13949439  0.90192482  0.29083596     0.08200
C1968       C  0.14356688  0.87667120  0.35438186    -0.10900
C1969       C  0.14464812  0.87494874  0.39427393    -0.10200
C1970       C  0.12857129  0.86821155  0.41539310    -0.01100
C1971       C  0.11146862  0.86301403  0.39569010    -0.11300
C1972       C  0.11038549  0.86477218  0.35579327    -0.09700
H1973       H  0.15622535  0.88177965  0.33881828     0.08200
H1974       H  0.15804036  0.87902848  0.40859038     0.11900
H1975       H  0.09875415  0.85797349  0.41116505     0.11700
H1976       H  0.09689596  0.86105097  0.34145198     0.08200
C1977       C  0.13764579  0.01619159  0.96540249    -0.10900
C1978       C  0.12645587  0.00995285  0.99687521     0.06300
C1979       C  0.11291980  0.02279815  0.01328139    -0.09600
C1980       C  0.11074250  0.04160889  0.99879904    -0.11300
C1981       C  0.12217918  0.04804574  0.96774866    -0.01100
C1982       C  0.13557561  0.03507946  0.95103981    -0.10200
C1983       C  0.12822311  0.98979210  0.01137917     0.06300
H1984       H  0.10385947  0.01820360  0.03706429     0.08200
H1985       H  0.10025897  0.05120179  0.01235605     0.11700
H1986       H  0.14467664  0.03961130  0.92728372     0.11900
H1987       H  0.14819561  0.00651983  0.95226044     0.08200
C1988       C  0.12817859  0.97422051  0.98529442    -0.10900
C1989       C  0.12859355  0.95511188  0.99842803    -0.10200
C1990       C  0.12931246  0.95108591  0.03795126    -0.01100
C1991       C  0.13002848  0.96659850  0.06424149    -0.11300
C1992       C  0.12926256  0.98587215  0.05101953    -0.09700
H1993       H  0.12722300  0.97681757  0.95468492     0.08200
H1994       H  0.12818220  0.94338904  0.97752098     0.11900
H1995       H  0.13054413  0.96381816  0.09482132     0.11700
H1996       H  0.12942239  0.99770796  0.07166207     0.08200
C1997       C  0.27403556  0.86150797  0.12355406    -0.10900
C1998       C  0.26213503  0.87753883  0.13280935     0.06300
C1999       C  0.26987020  0.89228078  0.15659235    -0.09600
C2000       C  0.28899977  0.89117053  0.17018664    -0.11300
C2001       C  0.30103682  0.87546645  0.15990878    -0.01100
C2002       C  0.29326269  0.86053502  0.13673855    -0.10200
C2003       C  0.24174674  0.87886598  0.11805327     0.06300
H2004       H  0.26135026  0.90501021  0.16393411     0.08200
H2005       H  0.29458534  0.90301868  0.18763047     0.11700
H2006       H  0.30212083  0.84818430  0.12837971     0.11900
H2007       H  0.26851284  0.84963707  0.10611771     0.08200
C2008       C  0.23664486  0.87144960  0.08158217    -0.10900
C2009       C  0.21732533  0.87220276  0.06860864    -0.10200
C2010       C  0.20274616  0.88065055  0.09153707    -0.01100
C2011       C  0.20794365  0.88849692  0.12745233    -0.11300
C2012       C  0.22709472  0.88746842  0.14063121    -0.09700
H2013       H  0.24756251  0.86508980  0.06298325     0.08200
H2014       H  0.21379271  0.86612288  0.04070985     0.11900
H2015       H  0.19706147  0.89493122  0.14607502     0.11700
H2016       H  0.23025714  0.89300467  0.16910561     0.08200
C2017       C  0.51629017  0.12386299  0.78132537    -0.10900
C2018       C  0.50569215  0.11772727  0.81363409     0.06300
C2019       C  0.51592465  0.11149112  0.84635190    -0.09600
C2020       C  0.53630236  0.11174166  0.84690370    -0.11300
C2021       C  0.54680168  0.11841959  0.81489945    -0.01100
C2022       C  0.53657937  0.12433322  0.78204850    -0.10200
C2023       C  0.48407397  0.11837327  0.81326782     0.06300
H2024       H  0.50819152  0.10686900  0.87184582     0.08200
H2025       H  0.54382283  0.10714628  0.87265567     0.11700
H2026       H  0.54428351  0.12927421  0.75673965     0.11900
H2027       H  0.50888978  0.12831095  0.75534849     0.08200
C2028       C  0.47437130  0.13387096  0.79521931    -0.10900
C2029       C  0.45408928  0.13453998  0.79423171    -0.10200
C2030       C  0.44296844  0.11982584  0.81159814    -0.01100
C2031       C  0.45260851  0.10439148  0.83000659    -0.11300
C2032       C  0.47296492  0.10364620  0.83074709    -0.09700
H2033       H  0.48246470  0.14566726  0.78219167     0.08200
H2034       H  0.44712293  0.14672745  0.78013054     0.11900
H2035       H  0.44443024  0.09279393  0.84352788     0.11700
H2036       H  0.47999620  0.09140263  0.84450949     0.08200
C2037       C  0.60852594  0.22968247  0.78093476    -0.10900
C2038       C  0.61750057  0.24020429  0.81077655     0.06300
C2039       C  0.62581992  0.23004488  0.84151588    -0.09600
C2040       C  0.62538664  0.20978802  0.84239018    -0.11300
C2041       C  0.61653173  0.19913690  0.81260185    -0.01100
C2042       C  0.60793185  0.20927381  0.78195394    -0.10200
C2043       C  0.61862017  0.26171998  0.81015718     0.06300
H2044       H  0.63303482  0.23779612  0.86462729     0.08200
H2045       H  0.63215100  0.20246968  0.86643514     0.11700
H2046       H  0.60103131  0.20145100  0.75857494     0.11900
H2047       H  0.60191774  0.23724988  0.75702101     0.08200
C2048       C  0.62497429  0.27159656  0.77718026    -0.10900
C2049       C  0.62765393  0.29181316  0.77803433    -0.10200
C2050       C  0.62365559  0.30245805  0.81166056    -0.01100
C2051       C  0.61682957  0.29260316  0.84425688    -0.11300
C2052       C  0.61446781  0.27243319  0.84359419    -0.09700
H2053       H  0.62838868  0.26361455  0.75114985     0.08200
H2054       H  0.63271162  0.29913709  0.75239874     0.11900
H2055       H  0.61359751  0.30047489  0.87051540     0.11700
H2056       H  0.60943189  0.26516047  0.86931005     0.08200
C2057       C  0.47686375  0.11911352  0.34728314    -0.10900
C2058       C  0.48769468  0.12612365  0.31602114     0.06300
C2059       C  0.47777440  0.13276696  0.28330997    -0.09600
C2060       C  0.45742917  0.13247571  0.28191143    -0.11300
C2061       C  0.44656587  0.12520593  0.31293478    -0.01100
C2062       C  0.45650227  0.11848769  0.34562302    -0.10200
C2063       C  0.50929347  0.12608346  0.31696978     0.06300
H2064       H  0.48578954  0.13833726  0.25890673     0.08200
H2065       H  0.45020263  0.13773310  0.25632420     0.11700
H2066       H  0.44852592  0.11289585  0.37005054     0.11900
H2067       H  0.48417960  0.11377774  0.37270794     0.08200
C2068       C  0.51951629  0.13361559  0.34870242    -0.10900
C2069       C  0.53993638  0.13373073  0.34900808    -0.10200
C2070       C  0.55046912  0.12596838  0.31789394    -0.01100
C2071       C  0.54015992  0.11827377  0.28640207    -0.11300
C2072       C  0.51983507  0.11846643  0.28583577    -0.09700
H2073       H  0.51169689  0.13964423  0.37299789     0.08200
H2074       H  0.54747037  0.13967488  0.37372558     0.11900
H2075       H  0.54781896  0.11220062  0.26194689     0.11700
H2076       H  0.51231364  0.11241360  0.26119245     0.08200
C2077       C  0.64378330  0.22716960  0.28523005    -0.10900
C2078       C  0.63608431  0.23834049  0.31572951     0.06300
C2079       C  0.62791364  0.22837341  0.34717491    -0.09600
C2080       C  0.62665155  0.20803980  0.34737013    -0.11300
C2081       C  0.63392565  0.19696979  0.31656906    -0.01100
C2082       C  0.64286196  0.20674037  0.28581544    -0.10200
C2083       C  0.63592770  0.26019708  0.31446233     0.06300
H2084       H  0.62242918  0.23624794  0.37187773     0.08200
H2085       H  0.62001832  0.20096098  0.37185794     0.11700
H2086       H  0.64865558  0.19861631  0.26166144     0.11900
H2087       H  0.65003151  0.23415698  0.26029644     0.08200
C2088       C  0.65063260  0.27076536  0.29540176    -0.10900
C2089       C  0.65013590  0.29120939  0.29411158    -0.10200
C2090       C  0.63505212  0.30164576  0.31220998    -0.01100
C2091       C  0.62042926  0.29112299  0.33129468    -0.11300
C2092       C  0.62076661  0.27076151  0.33213279    -0.09700
H2093       H  0.66272302  0.26330848  0.28189543     0.08200
H2094       H  0.66171266  0.29884719  0.27934444     0.11900
H2095       H  0.60851988  0.29862695  0.34537965     0.11700
H2096       H  0.60885431  0.26334139  0.34621084     0.08200
C2097       C  0.63151844  0.10446751  0.52609951    -0.10900
C2098       C  0.62597751  0.12145115  0.54588913     0.06300
C2099       C  0.61937983  0.13758574  0.52492589    -0.09600
C2100       C  0.61814239  0.13673931  0.48502400    -0.11300
C2101       C  0.62353147  0.11974200  0.46511035    -0.01100
C2102       C  0.63029369  0.10360929  0.48604292    -0.10200
C2103       C  0.62640843  0.12228556  0.58834187     0.06300
H2104       H  0.61529620  0.15095947  0.53943374     0.08200
H2105       H  0.61314227  0.14951746  0.46977097     0.11700
H2106       H  0.63466364  0.09033845  0.47149996     0.11900
H2107       H  0.63648443  0.09176440  0.54164034     0.08200
C2108       C  0.61071433  0.13057477  0.60835141    -0.10900
C2109       C  0.61084041  0.13150680  0.64828949    -0.10200
C2110       C  0.62666832  0.12413884  0.66926951    -0.01100
C2111       C  0.64244785  0.11585941  0.64929259    -0.11300
C2112       C  0.64229937  0.11491171  0.60913339    -0.09700
H2113       H  0.59814835  0.13609263  0.59308275     0.08200
H2114       H  0.59837338  0.13783829  0.66272021     0.11900
H2115       H  0.65484070  0.11003594  0.66465627     0.11700
H2116       H  0.65465768  0.10859090  0.59431877     0.08200
C2117       C  0.64189940  0.13027276  0.10709615    -0.10900
C2118       C  0.62548082  0.12246651  0.08840893     0.06300
C2119       C  0.61011702  0.11508694  0.11046455    -0.09600
C2120       C  0.61105061  0.11554761  0.15037238    -0.11300
C2121       C  0.62740643  0.12337667  0.16928119    -0.01100
C2122       C  0.64288837  0.13067219  0.14724455    -0.10200
C2123       C  0.62404725  0.12235883  0.04603680     0.06300
H2124       H  0.59719268  0.10924961  0.09682238     0.08200
H2125       H  0.59883125  0.10978344  0.16639725     0.11700
H2126       H  0.65570825  0.13667588  0.16096826     0.11900
H2127       H  0.65402145  0.13591612  0.09062547     0.08200
C2128       C  0.62924321  0.13895484  0.02505374    -0.10900
C2129       C  0.62747962  0.13907487  0.98517839    -0.10200
C2130       C  0.62052462  0.12256545  0.96535780    -0.01100
C2131       C  0.61521273  0.10598076  0.98639010    -0.11300
C2132       C  0.61694574  0.10589002  0.02638584    -0.09700
H2133       H  0.63443545  0.15194151  0.03954848     0.08200
H2134       H  0.63165131  0.15214004  0.96987499     0.11900
H2135       H  0.60995026  0.09301455  0.97194750     0.11700
H2136       H  0.61295631  0.09285061  0.04195747     0.08200
C2137       C  0.97391855  0.14332368  0.94949649    -0.10900
C2138       C  0.98387319  0.12693446  0.93532089     0.06300
C2139       C  0.97312097  0.11090947  0.92189112    -0.09600
C2140       C  0.95277264  0.11129489  0.92238200    -0.11300
C2141       C  0.94275240  0.12756244  0.93704983    -0.01100
C2142       C  0.95353909  0.14356071  0.95073680    -0.10200
C2143       C  0.00543321  0.12635021  0.93509934     0.06300
H2144       H  0.98049667  0.09815028  0.91069983     0.08200
H2145       H  0.94487448  0.09872886  0.91172470     0.11700
H2146       H  0.94622294  0.15631860  0.96207191     0.11900
H2147       H  0.98193675  0.15580178  0.96021209     0.08200
C2148       C  0.01626586  0.14142289  0.91821676    -0.10900
C2149       C  0.03664901  0.14069461  0.91784330    -0.10200
C2150       C  0.04656981  0.12507327  0.93506475    -0.01100
C2151       C  0.03565195  0.11006225  0.95210130    -0.11300
C2152       C  0.01530564  0.11061625  0.95179957    -0.09700
H2153       H  0.00893446  0.15364271  0.90497407     0.08200
H2154       H  0.04464668  0.15249919  0.90458719     0.11900
H2155       H  0.04284046  0.09781331  0.96553197     0.11700
H2156       H  0.00724314  0.09887449  0.96514400     0.08200
C2157       C  0.86523838  0.23585037  0.91003892    -0.10900
C2158       C  0.87215506  0.24568768  0.94271475     0.06300
C2159       C  0.87800277  0.23483156  0.97481089    -0.09600
C2160       C  0.87726734  0.21446011  0.97392659    -0.11300
C2161       C  0.87040391  0.20462078  0.94112063    -0.01100
C2162       C  0.86427154  0.21555003  0.90931412    -0.10200
C2163       C  0.87338524  0.26721780  0.94283296     0.06300
H2164       H  0.88347391  0.24209576  0.00027064     0.08200
H2165       H  0.88202473  0.20642024  0.99892688     0.11700
H2166       H  0.85892721  0.20840706  0.88361945     0.11900
H2167       H  0.86043171  0.24390267  0.88508423     0.08200
C2168       C  0.88112783  0.27698121  0.91093645    -0.10900
C2169       C  0.88159337  0.29728418  0.90997717    -0.10200
C2170       C  0.87410337  0.30828383  0.94071136    -0.01100
C2171       C  0.86660118  0.29853970  0.97292730    -0.11300
C2172       C  0.86638747  0.27815844  0.97410120    -0.09700
H2173       H  0.88682942  0.26887318  0.88667400     0.08200
H2174       H  0.88748514  0.30437241  0.88477262     0.11900
H2175       H  0.86086238  0.30666313  0.99712926     0.11700
H2176       H  0.86029261  0.27094492  0.99897355     0.08200
C2177       C  0.76490548  0.14743756  0.88631641    -0.10900
C2178       C  0.75417610  0.13002607  0.88756064     0.06300
C2179       C  0.76289678  0.11323128  0.90280713    -0.09600
C2180       C  0.78212004  0.11378323  0.91601132    -0.11300
C2181       C  0.79301584  0.13106067  0.91354164    -0.01100
C2182       C  0.78417267  0.14790958  0.89891894    -0.10200
C2183       C  0.73397804  0.12950901  0.87279301     0.06300
H2184       H  0.75484119  0.09968492  0.90447041     0.08200
H2185       H  0.78867124  0.10055742  0.92687859     0.11700
H2186       H  0.79226876  0.16141401  0.89671920     0.11900
H2187       H  0.75856373  0.16056452  0.87455085     0.08200
C2188       C  0.72101013  0.14459138  0.88203984    -0.10900
C2189       C  0.70196682  0.14427611  0.86830156    -0.10200
C2190       C  0.69544950  0.12889883  0.84480147    -0.01100
C2191       C  0.70849867  0.11392445  0.83499463    -0.11300
C2192       C  0.72758997  0.11417817  0.84904247    -0.09700
H2193       H  0.72550970  0.15649380  0.90053828     0.08200
H2194       H  0.69226866  0.15600715  0.87651589     0.11900
H2195       H  0.70384546  0.10182169  0.81717136     0.11700
H2196       H  0.73739848  0.10248216  0.84116909     0.08200
C2197       C  0.97747165  0.10317629  0.44577595    -0.10900
C2198       C  0.98812302  0.11838423  0.42874548     0.06300
C2199       C  0.97784081  0.13368569  0.41112155    -0.09600
C2200       C  0.95747681  0.13394220  0.41124711    -0.11300
C2201       C  0.94695962  0.11908734  0.42955818    -0.01100
C2202       C  0.95716938  0.10362308  0.44649415    -0.10200
C2203       C  0.00980165  0.11847947  0.43034657     0.06300
H2204       H  0.98547852  0.14578063  0.39813119     0.08200
H2205       H  0.94998195  0.14604842  0.39794785     0.11700
H2206       H  0.94945139  0.09178969  0.46028327     0.11900
H2207       H  0.98479145  0.09085180  0.45861749     0.08200
C2208       C  0.01958817  0.11076119  0.46237381    -0.10900
C2209       C  0.03988329  0.11077994  0.46408542    -0.10200
C2210       C  0.05093258  0.11883530  0.43415546    -0.01100
C2211       C  0.04125469  0.12675021  0.40230500    -0.11300
C2212       C  0.02092439  0.12643971  0.40027311    -0.09700
H2213       H  0.01159656  0.10494546  0.48655222     0.08200
H2214       H  0.04691916  0.10469946  0.48916003     0.11900
H2215       H  0.04940475  0.13292004  0.37864893     0.11700
H2216       H  0.01397268  0.13221244  0.37486273     0.08200
C2217       C  0.85456863  0.26779909  0.44242690    -0.10900
C2218       C  0.87010971  0.25657187  0.42808266     0.06300
C2219       C  0.88646812  0.26627686  0.41302605    -0.09600
C2220       C  0.88727196  0.28661949  0.41234893    -0.11300
C2221       C  0.87187712  0.29778462  0.42725228    -0.01100
C2222       C  0.85549358  0.28816140  0.44221650    -0.10200
C2223       C  0.86935309  0.23486522  0.42885739     0.06300
H2224       H  0.89887132  0.25816869  0.40236594     0.08200
H2225       H  0.90015362  0.29360486  0.40087174     0.11700
H2226       H  0.84330957  0.29638023  0.45357165     0.11900
H2227       H  0.84158536  0.26087037  0.45353527     0.08200
C2228       C  0.86048692  0.22491431  0.45955930    -0.10900
C2229       C  0.86008348  0.20451338  0.46034354    -0.10200
C2230       C  0.86874581  0.19361359  0.43068562    -0.01100
C2231       C  0.87753405  0.20353918  0.40000051    -0.11300
C2232       C  0.87771776  0.22387262  0.39896015    -0.09700
H2233       H  0.85416671  0.23286795  0.48339347     0.08200
H2234       H  0.85331057  0.19728024  0.48450182     0.11900
H2235       H  0.88417152  0.19557179  0.37650089     0.11700
H2236       H  0.88429192  0.23096551  0.37445152     0.08200
C2237       C  0.87932220  0.11070868  0.72781551    -0.10900
C2238       C  0.86988896  0.12536734  0.70666866     0.06300
C2239       C  0.86069613  0.14062876  0.72658183    -0.09600
C2240       C  0.86081323  0.14118036  0.76666571    -0.11300
C2241       C  0.87014145  0.12647818  0.78787199    -0.01100
C2242       C  0.87944806  0.11125741  0.76798034    -0.10200
C2243       C  0.86975115  0.12486157  0.66401251     0.06300
H2244       H  0.85359544  0.15230814  0.71114885     0.08200
H2245       H  0.85356507  0.15317539  0.78102568     0.11700
H2246       H  0.88672849  0.09969398  0.78342713     0.11900
H2247       H  0.88637035  0.09864027  0.71331442     0.08200
C2248       C  0.88647383  0.11920361  0.64364584    -0.10900
C2249       C  0.88644394  0.11880827  0.60358281    -0.10200
C2250       C  0.86970412  0.12412355  0.58282685    -0.01100
C2251       C  0.85296941  0.12983997  0.60312559    -0.11300
C2252       C  0.85298668  0.13017668  0.64331203    -0.09700
H2253       H  0.89970276  0.11531458  0.65868226     0.08200
H2254       H  0.89962101  0.11436781  0.58887086     0.11900
H2255       H  0.83980104  0.13384016  0.58799601     0.11700
H2256       H  0.83978023  0.13434529  0.65820784     0.08200
C2257       C  0.87442839  0.13800734  0.14697812    -0.10900
C2258       C  0.86637563  0.12140464  0.16456712     0.06300
C2259       C  0.85642354  0.10779441  0.14148039    -0.09600
C2260       C  0.85490395  0.11055393  0.10184374    -0.11300
C2261       C  0.86360957  0.12677332  0.08432854    -0.01100
C2262       C  0.87326621  0.14053152  0.10728820    -0.10200
C2263       C  0.86857941  0.11828781  0.20666043     0.06300
H2264       H  0.85026780  0.09470739  0.15376776     0.08200
H2265       H  0.84755475  0.09959508  0.08470143     0.11700
H2266       H  0.87997292  0.15324115  0.09451914     0.11900
H2267       H  0.88168711  0.14911889  0.16382710     0.08200
C2268       C  0.88540141  0.12480118  0.22590180    -0.10900
C2269       C  0.88705066  0.12299981  0.26565951    -0.10200
C2270       C  0.87217963  0.11416907  0.28700577    -0.01100
C2271       C  0.85573712  0.10686797  0.26786839    -0.11300
C2272       C  0.85385484  0.10907967  0.22813971    -0.09700
H2273       H  0.89731867  0.13140844  0.21032809     0.08200
H2274       H  0.89993554  0.12863006  0.27980142     0.11900
H2275       H  0.84394994  0.10023305  0.28384361     0.11700
H2276       H  0.84057611  0.10411323  0.21454352     0.08200
C2277       C  0.77185459  0.10360747  0.36803222    -0.10900
C2278       C  0.75850026  0.11625079  0.38555221     0.06300
C2279       C  0.76464173  0.12790682  0.41653846    -0.09600
C2280       C  0.78399938  0.12729648  0.42908742    -0.11300
C2281       C  0.79747315  0.11479882  0.41122602    -0.01100
C2282       C  0.79108329  0.10277949  0.38086556    -0.10200
C2283       C  0.73814311  0.11705001  0.37178047     0.06300
H2284       H  0.75455038  0.13777426  0.43047290     0.08200
H2285       H  0.78846110  0.13676944  0.45242601     0.11700
H2286       H  0.80104620  0.09299243  0.36636968     0.11900
H2287       H  0.76736835  0.09428886  0.34445139     0.08200
C2288       C  0.73396763  0.11932544  0.33248404    -0.10900
C2289       C  0.71464060  0.11990665  0.31965948    -0.10200
C2290       C  0.69927836  0.11767962  0.34584373    -0.01100
C2291       C  0.70352024  0.11529840  0.38504457    -0.11300
C2292       C  0.72274427  0.11520256  0.39792150    -0.09700
H2293       H  0.74565872  0.12084054  0.31184419     0.08200
H2294       H  0.71170397  0.12174052  0.28931886     0.11900
H2295       H  0.69191080  0.11371794  0.40586083     0.11700
H2296       H  0.72561293  0.11332143  0.42828332     0.08200
C2297       C  0.86614240  0.76644957  0.58648438    -0.10900
C2298       C  0.86994981  0.75625874  0.55227141     0.06300
C2299       C  0.87451622  0.76680067  0.51893421    -0.09600
C2300       C  0.87579601  0.78716569  0.52012700    -0.11300
C2301       C  0.87218068  0.79731922  0.55452624    -0.01100
C2302       C  0.86711996  0.78674808  0.58754509    -0.10200
C2303       C  0.86995955  0.73466829  0.55210473     0.06300
H2304       H  0.87758461  0.75925390  0.49224295     0.08200
H2305       H  0.87952542  0.79496469  0.49416152     0.11700
H2306       H  0.86418720  0.79416215  0.61444538     0.11900
H2307       H  0.86240269  0.75867401  0.61247951     0.08200
C2308       C  0.87969165  0.72453334  0.58129195    -0.10900
C2309       C  0.87986803  0.70421269  0.58165359    -0.10200
C2310       C  0.87010745  0.69351206  0.55306836    -0.01100
C2311       C  0.86028342  0.70363577  0.52385009    -0.11300
C2312       C  0.86034963  0.72405383  0.52319821    -0.09700
H2313       H  0.88737882  0.73236873  0.60368720     0.08200
H2314       H  0.88752389  0.69687660  0.60461464     0.11900
H2315       H  0.85266634  0.69578218  0.50139705     0.11700
H2316       H  0.85266489  0.73155757  0.50048507     0.08200
C2317       C  0.97819687  0.88084937  0.59190419    -0.10900
C2318       C  0.98910386  0.87337349  0.56097545     0.06300
C2319       C  0.97906218  0.86604286  0.52877030    -0.09600
C2320       C  0.95869204  0.86603343  0.52768608    -0.11300
C2321       C  0.94785616  0.87359389  0.55854013    -0.01100
C2322       C  0.95783308  0.88106785  0.59059409    -0.10200
C2323       C  0.01082344  0.87313312  0.56232452     0.06300
H2324       H  0.98694503  0.86051042  0.50411516     0.08200
H2325       H  0.95141869  0.86035633  0.50242365     0.11700
H2326       H  0.94987695  0.88684893  0.61495581     0.11900
H2327       H  0.98538342  0.88629949  0.61743307     0.08200
C2328       C  0.02127911  0.88851154  0.57950883    -0.10900
C2329       C  0.04167279  0.88827708  0.58049146    -0.10200
C2330       C  0.05211897  0.87272856  0.56407283    -0.01100
C2331       C  0.04167140  0.85732722  0.54706373    -0.11300
C2332       C  0.02131744  0.85749219  0.54632959    -0.09700
H2333       H  0.01372049  0.90092885  0.59163911     0.08200
H2334       H  0.04926071  0.90042024  0.59362844     0.11900
H2335       H  0.04922889  0.84504070  0.53438821     0.11700
H2336       H  0.01379881  0.84521835  0.53353432     0.08200
C2337       C  0.85545005  0.97362837  0.49909057    -0.10900
C2338       C  0.87174418  0.98540389  0.50654915     0.06300
C2339       C  0.88725447  0.97761744  0.52797249    -0.09600
C2340       C  0.88658480  0.95840173  0.54116271    -0.11300
C2341       C  0.87042493  0.94653437  0.53304608    -0.01100
C2342       C  0.85481433  0.95442309  0.51210782    -0.10200
C2343       C  0.87246050  0.00577100  0.49230134     0.06300
H2344       H  0.90011827  0.98625185  0.53385440     0.08200
H2345       H  0.89892005  0.95270686  0.55688276     0.11700
H2346       H  0.84210833  0.94569257  0.50545632     0.11900
H2347       H  0.84311390  0.97929405  0.48334319     0.08200
C2348       C  0.86522198  0.01059522  0.45571319    -0.10900
C2349       C  0.86559605  0.02989122  0.44278634    -0.10200
C2350       C  0.87336362  0.04469701  0.46609869    -0.01100
C2351       C  0.88071470  0.03980770  0.50252242    -0.11300
C2352       C  0.88021347  0.02061917  0.51549544    -0.09700
H2353       H  0.85939219  0.99941823  0.43694048     0.08200
H2354       H  0.85988764  0.03320165  0.41458047     0.11900
H2355       H  0.88660554  0.05089934  0.52143804     0.11700
H2356       H  0.88557882  0.01747800  0.54403665     0.08200
C2357       C  0.88941766  0.77773795  0.06375932    -0.10900
C2358       C  0.87218535  0.76761491  0.05509900     0.06300
C2359       C  0.85525726  0.77826733  0.04665357    -0.09600
C2360       C  0.85556033  0.79865499  0.04686629    -0.11300
C2361       C  0.87269696  0.80876911  0.05631798    -0.01100
C2362       C  0.88962243  0.79811031  0.06474759    -0.10200
C2363       C  0.87180612  0.74600643  0.05555431     0.06300
H2364       H  0.84182319  0.77079809  0.03963207     0.08200
H2365       H  0.84229981  0.80651146  0.04034553     0.11700
H2366       H  0.90305907  0.80554175  0.07191504     0.11900
H2367       H  0.90263103  0.76986790  0.07057427     0.08200
C2368       C  0.88643841  0.73519344  0.03702506    -0.10900
C2369       C  0.88610211  0.71481043  0.03766253    -0.10200
C2370       C  0.87128297  0.70482239  0.05735358    -0.01100
C2371       C  0.85673268  0.71568210  0.07612579    -0.11300
C2372       C  0.85691549  0.73605112  0.07498191    -0.09700
H2373       H  0.89802032  0.74252904  0.02167469     0.08200
H2374       H  0.89753425  0.70687309  0.02297071     0.11900
H2375       H  0.84509624  0.70843398  0.09146930     0.11700
H2376       H  0.84556686  0.74405607  0.08979301     0.08200
C2377       C  0.98045246  0.87110835  0.09142567    -0.10900
C2378       C  0.99125865  0.87822959  0.06018210     0.06300
C2379       C  0.98130721  0.88628565  0.02875242    -0.09600
C2380       C  0.96104162  0.88740604  0.02876547    -0.11300
C2381       C  0.95026972  0.88026510  0.05998216    -0.01100
C2382       C  0.96015661  0.87202401  0.09123752    -0.10200
C2383       C  0.01282801  0.87754129  0.06058365     0.06300
H2384       H  0.98916325  0.89155851  0.00390723     0.08200
H2385       H  0.95380389  0.89365529  0.00407909     0.11700
H2386       H  0.95222255  0.86647187  0.11575866     0.11900
H2387       H  0.98767821  0.86511223  0.11634726     0.08200
C2388       C  0.02371581  0.89295848  0.04505792    -0.10900
C2389       C  0.04399384  0.89240651  0.04540820    -0.10200
C2390       C  0.05385411  0.87653876  0.06170745    -0.01100
C2391       C  0.04303606  0.86116696  0.07749859    -0.11300
C2392       C  0.02271264  0.86160350  0.07672039    -0.09700
H2393       H  0.01658075  0.90562488  0.03310218     0.08200
H2394       H  0.05195587  0.90454084  0.03326915     0.11900
H2395       H  0.05027288  0.84867925  0.08996149     0.11700
H2396       H  0.01475486  0.84934604  0.08834122     0.08200
C2397       C  0.88744131  0.89149636  0.85065388    -0.10900
C2398       C  0.87329715  0.88121147  0.82981005     0.06300
C2399       C  0.85847486  0.87139058  0.84990227    -0.09600
C2400       C  0.85798922  0.87163613  0.89006907    -0.11300
C2401       C  0.87235525  0.88166549  0.91088243    -0.01100
C2402       C  0.88699203  0.89170877  0.89067337    -0.10200
C2403       C  0.87441652  0.88020685  0.78732461     0.06300
H2404       H  0.84722360  0.86354014  0.83452655     0.08200
H2405       H  0.84649533  0.86384743  0.90478158     0.11700
H2406       H  0.89827543  0.89965605  0.90577526     0.11900
H2407       H  0.89915925  0.89900088  0.83604400     0.08200
C2408       C  0.87948842  0.89668837  0.76554878    -0.10900
C2409       C  0.88063790  0.89553048  0.72547508    -0.10200
C2410       C  0.87668904  0.87787822  0.70648121    -0.01100
C2411       C  0.87186083  0.86138925  0.72838326    -0.11300
C2412       C  0.87076823  0.86253673  0.76828645    -0.09700
H2413       H  0.88224673  0.91055132  0.77946046     0.08200
H2414       H  0.88424894  0.90851056  0.70936814     0.11900
H2415       H  0.86884339  0.84752554  0.71467820     0.11700
H2416       H  0.86724013  0.84950442  0.78429883     0.08200
C2417       C  0.88250974  0.86694982  0.26582775    -0.10900
C2418       C  0.87290134  0.88109295  0.28808353     0.06300
C2419       C  0.86496108  0.89746914  0.26957473    -0.09600
C2420       C  0.86650325  0.89952185  0.22965097    -0.11300
C2421       C  0.87604829  0.88524970  0.20751730    -0.01100
C2422       C  0.88414539  0.86904331  0.22619415    -0.10200
C2423       C  0.87141406  0.87863025  0.33039530     0.06300
H2424       H  0.85768626  0.90875938  0.28595402     0.08200
H2425       H  0.86005984  0.91215163  0.21611643     0.11700
H2426       H  0.89149017  0.85768676  0.21010231     0.11900
H2427       H  0.88848412  0.85398122  0.27893274     0.08200
C2428       C  0.85447308  0.88403072  0.35052800    -0.10900
C2429       C  0.85327023  0.88148226  0.39035626    -0.10200
C2430       C  0.86895258  0.87339590  0.41077204    -0.01100
C2431       C  0.88575829  0.86782837  0.39050998    -0.11300
C2432       C  0.88701540  0.87051796  0.35095341    -0.09700
H2433       H  0.84208810  0.89006663  0.33547800     0.08200
H2434       H  0.84013375  0.88595912  0.40515934     0.11900
H2435       H  0.89820321  0.86174997  0.40532269     0.11700
H2436       H  0.90042195  0.86653419  0.33657453     0.08200
C2437       C  0.86879089  0.99217309  0.04104839    -0.10900
C2438       C  0.87458890  0.99662975  0.00321160     0.06300
C2439       C  0.88227666  0.98168343  0.98017637    -0.09600
C2440       C  0.88382375  0.96276118  0.99420609    -0.11300
C2441       C  0.87747696  0.95814440  0.03151114    -0.01100
C2442       C  0.87007096  0.97307023  0.05495791    -0.10200
C2443       C  0.87212235  0.01658072  0.98727589     0.06300
H2444       H  0.88656795  0.98442963  0.95076601     0.08200
H2445       H  0.88941496  0.95156905  0.97517750     0.11700
H2446       H  0.86518430  0.96996346  0.08387472     0.11900
H2447       H  0.86317433  0.00342626  0.05987430     0.08200
C2448       C  0.85584253  0.02787746  0.99734317    -0.10900
C2449       C  0.85358094  0.04668105  0.98288531    -0.10200
C2450       C  0.86750761  0.05468088  0.95783237    -0.01100
C2451       C  0.88347249  0.04319813  0.94669708    -0.11300
C2452       C  0.88579653  0.02438689  0.96136163    -0.09700
H2453       H  0.84477088  0.02218763  0.01640370     0.08200
H2454       H  0.84106892  0.05510222  0.99202530     0.11900
H2455       H  0.89453942  0.04898042  0.92771463     0.11700
H2456       H  0.89860825  0.01618289  0.95319023     0.08200
C2457       C  0.64541758  0.77152086  0.71718836    -0.10900
C2458       C  0.63510002  0.76105231  0.68889796     0.06300
C2459       C  0.62472082  0.77161850  0.66102747    -0.09600
C2460       C  0.62425971  0.79195973  0.66193300    -0.11300
C2461       C  0.63439118  0.80238733  0.69038837    -0.01100
C2462       C  0.64514494  0.79193814  0.71780447    -0.10200
C2463       C  0.63476656  0.73927133  0.68871985     0.06300
H2464       H  0.61700426  0.76420535  0.63816643     0.08200
H2465       H  0.61598697  0.79952215  0.64011522     0.11700
H2466       H  0.65311535  0.79952272  0.74013346     0.11900
H2467       H  0.65337176  0.76397522  0.73944846     0.08200
C2468       C  0.65098055  0.72833716  0.70090967    -0.10900
C2469       C  0.65042621  0.70791198  0.70083953    -0.10200
C2470       C  0.63376494  0.69795043  0.68802324    -0.01100
C2471       C  0.61762923  0.70883706  0.67571222    -0.11300
C2472       C  0.61804966  0.72917324  0.67638802    -0.09700
H2473       H  0.66423295  0.73551934  0.71001688     0.08200
H2474       H  0.66314266  0.69992046  0.71024369     0.11900
H2475       H  0.60448538  0.70162191  0.66601010     0.11700
H2476       H  0.60507968  0.73694633  0.66771907     0.08200
C2477       C  0.48149078  0.89082365  0.69855100    -0.10900
C2478       C  0.49142243  0.87484578  0.68233247     0.06300
C2479       C  0.48042989  0.85987220  0.66513158    -0.09600
C2480       C  0.46005575  0.86073614  0.66475432    -0.11300
C2481       C  0.45021435  0.87646148  0.68198389    -0.01100
C2482       C  0.46117278  0.89153033  0.69869147    -0.10200
C2483       C  0.51308987  0.87376589  0.68422559     0.06300
H2484       H  0.48751955  0.84724483  0.65274704     0.08200
H2485       H  0.45199490  0.84886743  0.65173942     0.11700
H2486       H  0.45403447  0.90397197  0.71173648     0.11900
H2487       H  0.48941187  0.90290054  0.71110790     0.08200
C2488       C  0.52408987  0.86551533  0.65412524    -0.10900
C2489       C  0.54447668  0.86509018  0.65596580    -0.10200
C2490       C  0.55427675  0.87305947  0.68777797    -0.01100
C2491       C  0.54327142  0.88097706  0.71804620    -0.11300
C2492       C  0.52299463  0.88120493  0.71641689    -0.09700
H2493       H  0.51699830  0.85978467  0.62873878     0.08200
H2494       H  0.55255966  0.85889406  0.63216794     0.11900
H2495       H  0.55033140  0.88702014  0.74321290     0.11700
H2496       H  0.51508118  0.88715062  0.74065443     0.08200
C2497       C  0.64169592  0.02228724  0.76491548    -0.10900
C2498       C  0.62487667  0.01077862  0.76861149     0.06300
C2499       C  0.60851187  0.01881363  0.78727640    -0.09600
C2500       C  0.60886657  0.03798601  0.80112922    -0.11300
C2501       C  0.62549212  0.04961342  0.79617661    -0.01100
C2502       C  0.64195655  0.04147972  0.77829586    -0.10200
C2503       C  0.62449421  0.99049839  0.75317181     0.06300
H2504       H  0.59521464  0.01049318  0.79026649     0.08200
H2505       H  0.59588173  0.04393349  0.81438802     0.11700
H2506       H  0.65503772  0.05004530  0.77425020     0.11900
H2507       H  0.65473196  0.01647869  0.75166023     0.08200
C2508       C  0.63450395  0.98557133  0.71913389    -0.10900
C2509       C  0.63469103  0.96633975  0.70552279    -0.10200
C2510       C  0.62468118  0.95165569  0.72538684    -0.01100
C2511       C  0.61436371  0.95667359  0.75892783    -0.11300
C2512       C  0.61435084  0.97578724  0.77271395    -0.09700
H2513       H  0.64216692  0.99658535  0.70288068     0.08200
H2514       H  0.64272464  0.96296537  0.67956594     0.11900
H2515       H  0.60661169  0.94571354  0.77519257     0.11700
H2516       H  0.60676219  0.97889863  0.79929484     0.08200
C2517       C  0.73298563  0.86146710  0.66115464    -0.10900
C2518       C  0.74144397  0.87685387  0.64030980     0.06300
C2519       C  0.73088559  0.89429004  0.63635430    -0.09600
C2520       C  0.71213703  0.89603896  0.65164730    -0.11300
C2521       C  0.70358220  0.88048637  0.67171282    -0.01100
C2522       C  0.71436672  0.86332994  0.67693115    -0.10200
C2523       C  0.76120237  0.87471805  0.62304266     0.06300
H2524       H  0.73706704  0.90662130  0.62134995     0.08200
H2525       H  0.70419939  0.90946988  0.64717000     0.11700
H2526       H  0.70808540  0.85097988  0.69175391     0.11900
H2527       H  0.74047471  0.84770139  0.66434947     0.08200
C2528       C  0.77552861  0.86369044  0.64180904    -0.10900
C2529       C  0.79418391  0.86195889  0.62642680    -0.10200
C2530       C  0.79920178  0.87143444  0.59206454    -0.01100
C2531       C  0.78487140  0.88222995  0.57279679    -0.11300
C2532       C  0.76603479  0.88376850  0.58801422    -0.09700
H2533       H  0.77255466  0.85678652  0.66909109     0.08200
H2534       H  0.80486264  0.85360769  0.64223508     0.11900
H2535       H  0.78826255  0.88966680  0.54623536     0.11700
H2536       H  0.75527929  0.89204881  0.57230170     0.08200
C2537       C  0.61176545  0.77241618  0.22060968    -0.10900
C2538       C  0.62595518  0.76131933  0.20127280     0.06300
C2539       C  0.64124500  0.77106959  0.18254684    -0.09600
C2540       C  0.64194467  0.79136079  0.18194250    -0.11300
C2541       C  0.62755258  0.80244085  0.20058081    -0.01100
C2542       C  0.61261429  0.79277559  0.22042827    -0.10200
C2543       C  0.62448540  0.73973123  0.19921049     0.06300
H2544       H  0.65271167  0.76302763  0.16820774     0.08200
H2545       H  0.65379703  0.79836847  0.16679415     0.11700
H2546       H  0.60131271  0.80093944  0.23502744     0.11900
H2547       H  0.59966893  0.76541473  0.23494566     0.08200
C2548       C  0.61728268  0.72881708  0.23029898    -0.10900
C2549       C  0.61573551  0.70851457  0.22766541    -0.10200
C2550       C  0.62158916  0.69875319  0.19407954    -0.01100
C2551       C  0.62878907  0.70965472  0.16312483    -0.11300
C2552       C  0.63007933  0.72986545  0.16553735    -0.09700
H2553       H  0.61308872  0.73591531  0.25684772     0.08200
H2554       H  0.61029726  0.70044456  0.25209792     0.11900
H2555       H  0.63328838  0.70256905  0.13673225     0.11700
H2556       H  0.63522092  0.73776658  0.14066510     0.08200
C2557       C  0.52460449  0.87709215  0.22280289    -0.10900
C2558       C  0.51484914  0.88379100  0.18981170     0.06300
C2559       C  0.52612300  0.89053718  0.15877883    -0.09600
C2560       C  0.54651923  0.89026439  0.16048592    -0.11300
C2561       C  0.55617026  0.88300913  0.19304894    -0.01100
C2562       C  0.54496012  0.87655970  0.22426781    -0.10200
C2563       C  0.49307902  0.88334556  0.18771554     0.06300
H2564       H  0.51922291  0.89559865  0.13272149     0.08200
H2565       H  0.55473986  0.89530054  0.13589577     0.11700
H2566       H  0.55193750  0.87115336  0.24999862     0.11900
H2567       H  0.51651510  0.87227782  0.24770700     0.08200
C2568       C  0.48254341  0.86827699  0.20553542    -0.10900
C2569       C  0.46218866  0.86794143  0.20451872    -0.10200
C2570       C  0.45171050  0.88254675  0.18529512    -0.01100
C2571       C  0.46217228  0.89742525  0.16675461    -0.11300
C2572       C  0.48258893  0.89786501  0.16806997    -0.09700
H2573       H  0.49002108  0.85655307  0.22009199     0.08200
H2574       H  0.45465204  0.85614739  0.21879831     0.11900
H2575       H  0.45457347  0.90893704  0.15175580     0.11700
H2576       H  0.49010995  0.90981972  0.15432420     0.08200
C2577       C  0.62323102  0.89360741  0.98510050    -0.10900
C2578       C  0.62989778  0.87687796  0.96565237     0.06300
C2579       C  0.63604439  0.86075645  0.98706524    -0.09600
C2580       C  0.63564387  0.86132588  0.02702954    -0.11300
C2581       C  0.62904533  0.87803247  0.04660437    -0.01100
C2582       C  0.62280756  0.89418290  0.02524483    -0.10200
C2583       C  0.63022112  0.87605715  0.92316286     0.06300
H2584       H  0.64093571  0.84756391  0.97289477     0.08200
H2585       H  0.64050740  0.84858780  0.04257592     0.11700
H2586       H  0.61775313  0.90728925  0.03950448     0.11900
H2587       H  0.61858412  0.90633444  0.96926915     0.08200
C2588       C  0.61465268  0.88367492  0.90198055    -0.10900
C2589       C  0.61480510  0.88280470  0.86200864    -0.10200
C2590       C  0.63056098  0.87431704  0.84221062    -0.01100
C2591       C  0.64609453  0.86654651  0.86337437    -0.11300
C2592       C  0.64591822  0.86740052  0.90349881    -0.09700
H2593       H  0.60221946  0.89012223  0.91634121     0.08200
H2594       H  0.60255450  0.88891158  0.84663131     0.11900
H2595       H  0.65844589  0.85997785  0.84896590     0.11700
H2596       H  0.65820563  0.86155163  0.91913898     0.08200
C2597       C  0.65103009  0.88624757  0.40271339    -0.10900
C2598       C  0.63457216  0.87987521  0.42315397     0.06300
C2599       C  0.61863502  0.87233666  0.40266518    -0.09600
C2600       C  0.61917081  0.87094556  0.36278820    -0.11300
C2601       C  0.63559990  0.87722153  0.34223244    -0.01100
C2602       C  0.65153780  0.88494164  0.36258502    -0.10200
C2603       C  0.63391585  0.88063050  0.46571304     0.06300
H2604       H  0.60557929  0.86767788  0.41747179     0.08200
H2605       H  0.60654425  0.86514434  0.34805475     0.11700
H2606       H  0.66437470  0.88999426  0.34753691     0.11900
H2607       H  0.66359670  0.89197037  0.41775177     0.08200
C2608       C  0.62538808  0.86522205  0.48610851    -0.10900
C2609       C  0.62394614  0.86593286  0.52593813    -0.10200
C2610       C  0.63113497  0.88201418  0.54659677    -0.01100
C2611       C  0.63995413  0.89737332  0.52637490    -0.11300
C2612       C  0.64132741  0.89668737  0.48624231    -0.09700
H2613       H  0.61993133  0.85245409  0.47125757     0.08200
H2614       H  0.61728298  0.85372360  0.54054480     0.11900
H2615       H  0.64575985  0.90989889  0.54151140     0.11700
H2616       H  0.64787161  0.90884055  0.47126130     0.08200
C2617       C  0.64715700  0.97795115  0.25606986    -0.10900
C2618       C  0.63109531  0.98948611  0.24590381     0.06300
C2619       C  0.61694644  0.98167876  0.22105205    -0.09600
C2620       C  0.61864205  0.96265735  0.20715991    -0.11300
C2621       C  0.63446093  0.95097285  0.21805925    -0.01100
C2622       C  0.64880243  0.95888548  0.24234743    -0.10200
C2623       C  0.62911590  0.00963874  0.26088774     0.06300
H2624       H  0.60426467  0.99011963  0.21305955     0.08200
H2625       H  0.60724489  0.95692030  0.18887715     0.11700
H2626       H  0.66119117  0.95024207  0.25125975     0.11900
H2627       H  0.65846799  0.98367054  0.27457137     0.08200
C2628       C  0.63416337  0.01428506  0.29902565    -0.10900
C2629       C  0.63241388  0.03341926  0.31268617    -0.10200
C2630       C  0.62534670  0.04814277  0.28854069    -0.01100
C2631       C  0.62017050  0.04341471  0.25059706    -0.11300
C2632       C  0.62214070  0.02444461  0.23687221    -0.09700
H2633       H  0.63934173  0.00310313  0.31837661     0.08200
H2634       H  0.63650131  0.03668134  0.34202854     0.11900
H2635       H  0.61500619  0.05452578  0.23105217     0.11700
H2636       H  0.61851555  0.02145245  0.20718839     0.08200
C2637       C  0.77414018  0.89830845  0.12169152    -0.10900
C2638       C  0.76374708  0.88081340  0.11679023     0.06300
C2639       C  0.77235831  0.86570955  0.09521650    -0.09600
C2640       C  0.79097275  0.86792349  0.07958893    -0.11300
C2641       C  0.80156211  0.88517031  0.08561753    -0.01100
C2642       C  0.79286716  0.90041540  0.10650622    -0.10200
C2643       C  0.74396376  0.87838828  0.13374279     0.06300
H2644       H  0.76496152  0.85192688  0.09125033     0.08200
H2645       H  0.79737840  0.85579924  0.06409476     0.11700
H2646       H  0.80065133  0.91390180  0.11157598     0.11900
H2647       H  0.76781795  0.91042611  0.13729652     0.08200
C2648       C  0.73909269  0.88690158  0.16937666    -0.10900
C2649       C  0.72017451  0.88533361  0.18416931    -0.10200
C2650       C  0.70579768  0.87502194  0.16387148    -0.01100
C2651       C  0.71086887  0.86599584  0.12893629    -0.11300
C2652       C  0.72962207  0.86776216  0.11398160    -0.09700
H2653       H  0.74987421  0.89483705  0.18582098     0.08200
H2654       H  0.71675231  0.89237948  0.21122449     0.11900
H2655       H  0.70014462  0.85805072  0.11233264     0.11700
H2656       H  0.73266555  0.86125906  0.08625071     0.08200
loop_ 
_geom_bond_atom_site_label_1 
_geom_bond_atom_site_label_2 
_geom_bond_distance 
_geom_bond_site_symmetry_2 
_ccdc_geom_bond_type 
Zn1           O5   1.956       .  S
Zn1           O6   2.020       .  S
Zn1          O10   2.030       .  S
Zn1          O17   2.031       .  S
Zn2           O5   1.960       .  S
Zn2           O7   2.019       .  S
Zn2           O9   1.996       .  S
Zn2          O13   2.041       .  S
Zn3           O5   1.946       .  S
Zn3           O8   2.030       .  S
Zn3          O11   2.005       .  S
Zn3          O14   2.026       .  S
Zn4           O5   1.925       .  S
Zn4          O12   1.991       .  S
Zn4          O15   1.992       .  S
Zn4          O16   1.982       .  S
O6           C18   1.276       .  A
O7           C19   1.275       .  A
O8           C20   1.275       .  A
O9           C18   1.272       .  A
O10          C20   1.275       .  A
O11          C19   1.275       .  A
O12          C21   1.272       .  A
O13          C22   1.275       .  A
O14          C21   1.275       .  A
O15          C22   1.270       .  A
O16          C23   1.271       .  A
O17          C23   1.276       .  A
C18        C2621   1.477       .  S
C19        C2601   1.479       .  S
C20        C2561   1.486       .  S
C21        C2541   1.477       .  S
C22        C2650   1.483       .  S
C23        C2581   1.478       .  S
Zn24         O28   1.927       .  S
Zn24         O29   1.991       .  S
Zn24         O33   1.978       .  S
Zn24         O40   1.996       .  S
Zn25         O28   1.965       .  S
Zn25         O30   2.006       .  S
Zn25         O32   2.044       .  S
Zn25         O36   2.029       .  S
Zn26         O28   1.962       .  S
Zn26         O31   2.039       .  S
Zn26         O34   2.028       .  S
Zn26         O37   2.030       .  S
Zn27         O28   1.945       .  S
Zn27         O35   2.014       .  S
Zn27         O38   1.994       .  S
Zn27         O39   2.032       .  S
O29          C41   1.271       .  A
O30          C42   1.273       .  A
O31          C43   1.277       .  A
O32          C41   1.277       .  A
O33          C43   1.270       .  A
O34          C42   1.276       .  A
O35          C44   1.274       .  A
O36          C45   1.276       .  A
O37          C44   1.275       .  A
O38          C45   1.273       .  A
O39          C46   1.274       .  A
O40          C46   1.272       .  A
C41        C2510   1.483       .  S
C42        C2521   1.480       .  S
C43        C2590   1.479       .  S
C44        C2461   1.485       .  S
C45        C2610   1.480       .  S
C46        C2490   1.482       .  S
Zn47         O51   1.929       .  S
Zn47         O52   1.980       .  S
Zn47         O56   1.977   1_554  S
Zn47         O63   1.994       .  S
Zn48         O51   1.966       .  S
Zn48         O53   2.012       .  S
Zn48         O55   2.051       .  S
Zn48         O59   2.036       .  S
Zn49         O51   1.961       .  S
Zn49         O54   2.043   1_554  S
Zn49         O57   2.022       .  S
Zn49         O60   2.025       .  S
Zn50         O51   1.941       .  S
Zn50         O58   2.014       .  S
Zn50         O61   1.997       .  S
Zn50         O62   2.008       .  S
O52          C64   1.270       .  A
O53          C65   1.274       .  A
O54          C66   1.277       .  A
O55          C64   1.277       .  A
O56          C66   1.270       .  A
O57          C65   1.276       .  A
O58          C67   1.273       .  A
O59          C68   1.277       .  A
O60          C67   1.274       .  A
O61          C68   1.274       .  A
O62          C69   1.272       .  A
O63          C69   1.271       .  A
C64        C2441   1.481       .  S
C65        C2641   1.480       .  S
C66        C2401   1.480       .  S
C67        C2361   1.479       .  S
C68        C2421   1.482       .  S
C69        C2381   1.474       .  S
Zn70         O74   1.959       .  S
Zn70         O75   2.003       .  S
Zn70         O79   2.039       .  S
Zn70         O86   2.026       .  S
Zn71         O74   1.956       .  S
Zn71         O76   2.035       .  S
Zn71         O78   2.029       .  S
Zn71         O82   2.022       .  S
Zn72         O74   1.927       .  S
Zn72         O77   1.989       .  S
Zn72         O80   1.989       .  S
Zn72         O83   1.997       .  S
Zn73         O74   1.945       .  S
Zn73         O81   2.033       .  S
Zn73         O84   2.029       .  S
Zn73         O85   2.002       .  S
O75          C87   1.273       .  A
O76          C88   1.276       .  A
O77          C89   1.271       .  A
O78          C87   1.276       .  A
O79          C89   1.276       .  A
O80          C88   1.272       .  A
O81          C90   1.275       .  A
O82          C91   1.275       .  A
O83          C90   1.272       .  A
O84          C91   1.276       .  A
O85          C92   1.274       .  A
O86          C92   1.276       .  A
C87        C2341   1.481       .  S
C88        C2410   1.479       .  S
C89        C2530   1.482       .  S
C90        C2301   1.479       .  S
C91        C2321   1.483       .  S
C92        C2430   1.481       .  S
Zn93         O97   1.957       .  S
Zn93         O98   1.995       .  S
Zn93        O102   2.041       .  S
Zn93        O109   2.020       .  S
Zn94         O97   1.965       .  S
Zn94         O99   2.041       .  S
Zn94        O101   2.042       .  S
Zn94        O105   2.036       .  S
Zn95         O97   1.930       .  S
Zn95        O100   1.984       .  S
Zn95        O103   1.990       .  S
Zn95        O106   2.001       .  S
Zn96         O97   1.947       .  S
Zn96        O104   2.021       .  S
Zn96        O107   2.008       .  S
Zn96        O108   2.001       .  S
O98         C110   1.272       .  A
O99         C111   1.277       .  A
O100        C112   1.270       .  A
O101        C110   1.277       .  A
O102        C112   1.276       .  A
O103        C111   1.272       .  A
O104        C113   1.273       .  A
O105        C114   1.276       .  A
O106        C113   1.272       .  A
O107        C114   1.274       .  A
O108        C115   1.273       .  A
O109        C115   1.275       .  A
C110       C2281   1.483       .  S
C111       C2250   1.481       .  S
C112       C2350   1.480       .  S
C113       C2201   1.478       .  S
C114       C2230   1.482       .  S
C115       C2270   1.473       .  S
Zn116       O120   1.955       .  S
Zn116       O121   2.017       .  S
Zn116       O125   2.026       .  S
Zn116       O132   2.014   1_556  S
Zn117       O120   1.943       .  S
Zn117       O122   2.004       .  S
Zn117       O124   2.009       .  S
Zn117       O128   2.004       .  S
Zn118       O120   1.961       .  S
Zn118       O123   2.016       .  S
Zn118       O126   2.033       .  S
Zn118       O129   2.033       .  S
Zn119       O120   1.954       .  S
Zn119       O127   1.991       .  S
Zn119       O130   2.020       .  S
Zn119       O131   2.011   1_556  S
O121        C133   1.273       .  A
O122        C134   1.273       .  A
O123        C135   1.274       .  A
O124        C133   1.273       .  A
O125        C135   1.275       .  A
O126        C134   1.277       .  A
O127        C136   1.271       .  A
O128        C137   1.272       .  A
O129        C136   1.275       .  A
O130        C137   1.274       .  A
O131        C138   1.274       .  A
O132        C138   1.275       .  A
C133       C2161   1.479       .  S
C134       C2241   1.483       .  S
C135       C2141   1.482       .  S
C136       C2450   1.481       .  S
C137       C2181   1.474       .  S
C138       C2261   1.475       .  S
Zn139       O143   1.946       .  S
Zn139       O144   2.049       .  S
Zn139       O148   2.027       .  S
Zn139       O155   2.010       .  S
Zn140       O143   1.923       .  S
Zn140       O145   1.970       .  S
Zn140       O147   1.995       .  S
Zn140       O151   1.985       .  S
Zn141       O143   1.971       .  S
Zn141       O146   2.036       .  S
Zn141       O149   2.044       .  S
Zn141       O152   2.045       .  S
Zn142       O143   1.952       .  S
Zn142       O150   1.989       .  S
Zn142       O153   2.031       .  S
Zn142       O154   2.007       .  S
O144        C156   1.277       .  A
O145        C157   1.270       .  A
O146        C158   1.277       .  A
O147        C156   1.272       .  A
O148        C158   1.277       .  A
O149        C157   1.277       .  A
O150        C159   1.271       .  A
O151        C160   1.270       .  A
O152        C159   1.277       .  A
O153        C160   1.274       .  A
O154        C161   1.274       .  A
O155        C161   1.275       .  A
C156       C2070   1.483       .  S
C157       C2121   1.479       .  S
C158       C2081   1.486       .  S
C159       C2290   1.475       .  S
C160       C2630   1.476       .  S
C161       C2101   1.478       .  S
Zn162       O166   1.955       .  S
Zn162       O167   1.996       .  S
Zn162       O171   2.030       .  S
Zn162       O178   2.024       .  S
Zn163       O166   1.962       .  S
Zn163       O168   2.039       .  S
Zn163       O170   2.037       .  S
Zn163       O174   2.025       .  S
Zn164       O166   1.925       .  S
Zn164       O169   1.984       .  S
Zn164       O172   1.979       .  S
Zn164       O175   1.982       .  S
Zn165       O166   1.946       .  S
Zn165       O173   2.033       .  S
Zn165       O176   2.007       .  S
Zn165       O177   1.997       .  S
O167        C179   1.272       .  A
O168        C180   1.277       .  A
O169        C181   1.270       .  A
O170        C179   1.277       .  A
O171        C181   1.274       .  A
O172        C180   1.270       .  A
O173        C182   1.274       .  A
O174        C183   1.275       .  A
O175        C182   1.270       .  A
O176        C183   1.274       .  A
O177        C184   1.273       .  A
O178        C184   1.275       .  A
C179       C2501   1.479       .  S
C180       C2130   1.479       .  S
C181       C2190   1.478       .  S
C182       C2041   1.479       .  S
C183       C2021   1.478       .  S
C184       C2110   1.479       .  S
Zn185       O189   1.943       .  S
Zn185       O190   2.005       .  S
Zn185       O194   2.001       .  S
Zn185       O201   2.016       .  S
Zn186       O189   1.959       .  S
Zn186       O191   2.002       .  S
Zn186       O193   2.024       .  S
Zn186       O197   2.052       .  S
Zn187       O189   1.970       .  S
Zn187       O192   2.036       .  S
Zn187       O195   2.046       .  S
Zn187       O198   2.045   1_554  S
Zn188       O189   1.923       .  S
Zn188       O196   1.970   1_554  S
Zn188       O199   1.963       .  S
Zn188       O200   1.989       .  S
O190        C202   1.274       .  A
O191        C203   1.274       .  A
O192        C204   1.276       .  A
O193        C202   1.276       .  A
O194        C204   1.273       .  A
O195        C203   1.278       .  A
O196        C205   1.269       .  A
O197        C206   1.276       .  A
O198        C205   1.277       .  A
O199        C206   1.267       .  A
O200        C207   1.270       .  A
O201        C207   1.273       .  A
C202       C1961   1.481       .  S
C203       C2010   1.484       .  S
C204       C1921   1.482       .  S
C205       C1941   1.471       .  S
C206       C1990   1.473       .  S
C207       C2390   1.474       .  S
Zn208       O212   1.952       .  S
Zn208       O213   2.012       .  S
Zn208       O217   2.016       .  S
Zn208       O224   2.012       .  S
Zn209       O212   1.976       .  S
Zn209       O214   2.041       .  S
Zn209       O216   2.041       .  S
Zn209       O220   2.050       .  S
Zn210       O212   1.939       .  S
Zn210       O215   1.997       .  S
Zn210       O218   1.986       .  S
Zn210       O221   2.001       .  S
Zn211       O212   1.951       .  S
Zn211       O219   2.040       .  S
Zn211       O222   1.983       .  S
Zn211       O223   2.013       .  S
O213        C225   1.273       .  A
O214        C226   1.278       .  A
O215        C227   1.271       .  A
O216        C225   1.276       .  A
O217        C227   1.274       .  A
O218        C226   1.272       .  A
O219        C228   1.275       .  A
O220        C229   1.278       .  A
O221        C228   1.270       .  A
O222        C229   1.271       .  A
O223        C230   1.274       .  A
O224        C230   1.274       .  A
C225       C2330   1.486       .  S
C226       C1950   1.476       .  S
C227       C1861   1.475       .  S
C228       C1901   1.482       .  S
C229       C1881   1.479       .  S
C230       C1970   1.479       .  S
Zn231       O235   1.953       .  S
Zn231       O236   1.996       .  S
Zn231       O240   2.021       .  S
Zn231       O247   2.036       .  S
Zn232       O235   1.974       .  S
Zn232       O237   2.041       .  S
Zn232       O239   2.049       .  S
Zn232       O243   2.047       .  S
Zn233       O235   1.946       .  S
Zn233       O238   2.007       .  S
Zn233       O241   2.023       .  S
Zn233       O244   2.016       .  S
Zn234       O235   1.945       .  S
Zn234       O242   2.015       .  S
Zn234       O245   1.989       .  S
Zn234       O246   2.011       .  S
O236        C248   1.273       .  A
O237        C249   1.276       .  A
O238        C250   1.274       .  A
O239        C248   1.278       .  A
O240        C250   1.275       .  A
O241        C249   1.275       .  A
O242        C251   1.274       .  A
O243        C252   1.278       .  A
O244        C251   1.273       .  A
O245        C252   1.272       .  A
O246        C253   1.272       .  A
O247        C253   1.276       .  A
C248       C1841   1.486       .  S
C249       C2570   1.489       .  S
C250       C1830   1.481       .  S
C251       C1790   1.478       .  S
C252       C1810   1.474       .  S
C253       C2001   1.485       .  S
Zn254       O258   1.970       .  S
Zn254       O259   2.029       .  S
Zn254       O263   2.057       .  S
Zn254       O270   2.055       .  S
Zn255       O258   1.943       .  S
Zn255       O260   2.008       .  S
Zn255       O262   2.013       .  S
Zn255       O266   2.025       .  S
Zn256       O258   1.949       .  S
Zn256       O261   1.993       .  S
Zn256       O264   2.020       .  S
Zn256       O267   2.032       .  S
Zn257       O258   1.936       .  S
Zn257       O265   1.999       .  S
Zn257       O268   2.016       .  S
Zn257       O269   1.988       .  S
O259        C271   1.276       .  A
O260        C272   1.275       .  A
O261        C273   1.271       .  A
O262        C271   1.274       .  A
O263        C273   1.278       .  A
O264        C272   1.275       .  A
O265        C274   1.271       .  A
O266        C275   1.274       .  A
O267        C274   1.275       .  A
O268        C275   1.274       .  A
O269        C276   1.273       .  A
O270        C276   1.280       .  A
C271       C1741   1.481       .  S
C272       C1821   1.480       .  S
C273       C1910   1.486       .  S
C274       C1761   1.479       .  S
C275       C2481   1.482       .  S
C276       C1801   1.481       .  S
Zn277       O281   1.943       .  S
Zn277       O282   2.016       .  S
Zn277       O286   1.993       .  S
Zn277       O293   2.005       .  S
Zn278       O281   1.953       .  S
Zn278       O283   2.020       .  S
Zn278       O285   2.029       .  S
Zn278       O289   2.006       .  S
Zn279       O281   1.969       .  S
Zn279       O284   2.038       .  S
Zn279       O287   2.026       .  S
Zn279       O290   2.047       .  S
Zn280       O281   1.958       .  S
Zn280       O288   2.006       .  S
Zn280       O291   2.022       .  S
Zn280       O292   2.039       .  S
O282        C294   1.273       .  A
O283        C295   1.274       .  A
O284        C296   1.277       .  A
O285        C294   1.274       .  A
O286        C296   1.273       .  A
O287        C295   1.275       .  A
O288        C297   1.273       .  A
O289        C298   1.274       .  A
O290        C297   1.277       .  A
O291        C298   1.276       .  A
O292        C299   1.276       .  A
O293        C299   1.272       .  A
C294       C1670   1.483       .  S
C295       C2061   1.482       .  S
C296       C1690   1.477       .  S
C297       C1850   1.483       .  S
C298       C1710   1.478       .  S
C299       C1721   1.483       .  S
Zn300       O304   1.936       .  S
Zn300       O305   2.008       .  S
Zn300       O309   2.008       .  S
Zn300       O316   1.994       .  S
Zn301       O304   1.953       .  S
Zn301       O306   2.030       .  S
Zn301       O308   2.038       .  S
Zn301       O312   1.999       .  S
Zn302       O304   1.946       .  S
Zn302       O307   2.018       .  S
Zn302       O310   1.997       .  S
Zn302       O313   2.006       .  S
Zn303       O304   1.967       .  S
Zn303       O311   2.021       .  S
Zn303       O314   2.036       .  S
Zn303       O315   2.038       .  S
O305        C317   1.273       .  A
O306        C318   1.276       .  A
O307        C319   1.272       .  A
O308        C317   1.277       .  A
O309        C319   1.273       .  A
O310        C318   1.273       .  A
O311        C320   1.274       .  A
O312        C321   1.272       .  A
O313        C320   1.274       .  A
O314        C321   1.276       .  A
O315        C322   1.277       .  A
O316        C322   1.272       .  A
C317       C1650   1.484       .  S
C318       C1681   1.478       .  S
C319       C1630   1.478       .  S
C320       C2030   1.479       .  S
C321       C1770   1.483       .  S
C322       C1701   1.478       .  S
Zn323       O327   1.930       .  S
Zn323       O328   2.000       .  S
Zn323       O332   1.987       .  S
Zn323       O339   1.994       .  S
Zn324       O327   1.942       .  S
Zn324       O329   2.011       .  S
Zn324       O331   2.019       .  S
Zn324       O335   1.994       .  S
Zn325       O327   1.966       .  S
Zn325       O330   2.041       .  S
Zn325       O333   2.035       .  S
Zn325       O336   2.041       .  S
Zn326       O327   1.956       .  S
Zn326       O334   1.997       .  S
Zn326       O337   2.039       .  S
Zn326       O338   2.050       .  S
O328        C340   1.272       .  A
O329        C341   1.274       .  A
O330        C342   1.277       .  A
O331        C340   1.273       .  A
O332        C342   1.271       .  A
O333        C341   1.276       .  A
O334        C343   1.272       .  A
O335        C344   1.272       .  A
O336        C343   1.277       .  A
O337        C344   1.277       .  A
O338        C345   1.278       .  A
O339        C345   1.271       .  A
C340       C2210   1.478       .  S
C341       C1561   1.480       .  S
C342       C1581   1.475       .  S
C343       C1730   1.482       .  S
C344       C1601   1.479       .  S
C345       C1890   1.483       .  S
Zn346       O350   1.933       .  S
Zn346       O351   2.012       .  S
Zn346       O355   1.993   1_556  S
Zn346       O362   1.994       .  S
Zn347       O350   1.946       .  S
Zn347       O352   2.012       .  S
Zn347       O354   2.034       .  S
Zn347       O358   2.012       .  S
Zn348       O350   1.966       .  S
Zn348       O353   2.043   1_556  S
Zn348       O356   2.033       .  S
Zn348       O359   2.053       .  S
Zn349       O350   1.950       .  S
Zn349       O357   2.000       .  S
Zn349       O360   2.012       .  S
Zn349       O361   2.032       .  S
O351        C363   1.273       .  A
O352        C364   1.275       .  A
O353        C365   1.278       .  A
O354        C363   1.275       .  A
O355        C365   1.273       .  A
O356        C364   1.276       .  A
O357        C366   1.272       .  A
O358        C367   1.275       .  A
O359        C366   1.278       .  A
O360        C367   1.275       .  A
O361        C368   1.276       .  A
O362        C368   1.271       .  A
C363       C2150   1.483       .  S
C364       C1541   1.481       .  S
C365       C1610   1.481       .  S
C366       C1641   1.484       .  S
C367       C1590   1.479       .  S
C368       C1981   1.481       .  S
Zn369       O373   1.964       .  S
Zn369       O374   2.020       .  S
Zn369       O378   2.034       .  S
Zn369       O385   2.051       .  S
Zn370       O373   1.957       .  S
Zn370       O375   2.027       .  S
Zn370       O377   2.021       .  S
Zn370       O381   2.038       .  S
Zn371       O373   1.952       .  S
Zn371       O376   2.004       .  S
Zn371       O379   2.017       .  S
Zn371       O382   2.034       .  S
Zn372       O373   1.930       .  S
Zn372       O380   1.988       .  S
Zn372       O383   1.998       .  S
Zn372       O384   1.986       .  S
O374        C386   1.275       .  A
O375        C387   1.277       .  A
O376        C388   1.273       .  A
O377        C386   1.276       .  A
O378        C388   1.275       .  A
O379        C387   1.275       .  A
O380        C389   1.270       .  A
O381        C390   1.275       .  A
O382        C389   1.276       .  A
O383        C390   1.271       .  A
O384        C391   1.272       .  A
O385        C391   1.278       .  A
C386       C2221   1.481       .  S
C387       C1490   1.482       .  S
C388       C1501   1.483       .  S
C389       C1521   1.479       .  S
C390       C1441   1.478       .  S
C391       C1461   1.481       .  S
Zn392       O396   1.959       .  S
Zn392       O397   2.048       .  S
Zn392       O401   2.005       .  S
Zn392       O408   2.040       .  S
Zn393       O396   1.940       .  S
Zn393       O398   2.001   1_556  S
Zn393       O400   2.000       .  S
Zn393       O404   2.013       .  S
Zn394       O396   1.969       .  S
Zn394       O399   2.049       .  S
Zn394       O402   2.040   1_556  S
Zn394       O405   2.025       .  S
Zn395       O396   1.945       .  S
Zn395       O403   1.998       .  S
Zn395       O406   2.017       .  S
Zn395       O407   1.996       .  S
O397        C409   1.278       .  A
O398        C410   1.273       .  A
O399        C411   1.277       .  A
O400        C409   1.272       .  A
O401        C411   1.273       .  A
O402        C410   1.277       .  A
O403        C412   1.272       .  A
O404        C413   1.273       .  A
O405        C412   1.274       .  A
O406        C413   1.273       .  A
O407        C414   1.273       .  A
O408        C414   1.277       .  A
C409       C1421   1.482       .  S
C410       C1481   1.479       .  S
C411       C1401   1.487       .  S
C412       C2170   1.477       .  S
C413       C1381   1.480       .  S
C414       C1470   1.482       .  S
Zn415       O419   1.938       .  S
Zn415       O420   1.990       .  S
Zn415       O424   2.017       .  S
Zn415       O431   1.993       .  S
Zn416       O419   1.961       .  S
Zn416       O421   2.020   1_554  S
Zn416       O423   2.041       .  S
Zn416       O427   2.004       .  S
Zn417       O419   1.948       .  S
Zn417       O422   2.025       .  S
Zn417       O425   2.011   1_554  S
Zn417       O428   2.019       .  S
Zn418       O419   1.967       .  S
Zn418       O426   2.045       .  S
Zn418       O429   2.048       .  S
Zn418       O430   2.036       .  S
O420        C432   1.270       .  A
O421        C433   1.276       .  A
O422        C434   1.274       .  A
O423        C432   1.275       .  A
O424        C434   1.274       .  A
O425        C433   1.275       .  A
O426        C435   1.277       .  A
O427        C436   1.273       .  A
O428        C435   1.275       .  A
O429        C436   1.278       .  A
O430        C437   1.277       .  A
O431        C437   1.273       .  A
C432       C1361   1.481       .  S
C433       C1330   1.481       .  S
C434       C2370   1.483       .  S
C435       C1301   1.488       .  S
C436       C1430   1.485       .  S
C437       C1341   1.481       .  S
Zn438       O442   1.931       .  S
Zn438       O443   1.989       .  S
Zn438       O447   1.977       .  S
Zn438       O454   2.008       .  S
Zn439       O442   1.966       .  S
Zn439       O444   2.041       .  S
Zn439       O446   2.043       .  S
Zn439       O450   2.033       .  S
Zn440       O442   1.966       .  S
Zn440       O445   2.048       .  S
Zn440       O448   2.013       .  S
Zn440       O451   2.033       .  S
Zn441       O442   1.943       .  S
Zn441       O449   1.995       .  S
Zn441       O452   2.008       .  S
Zn441       O453   2.026       .  S
O443        C455   1.272       .  A
O444        C456   1.277       .  A
O445        C457   1.277       .  A
O446        C455   1.277       .  A
O447        C457   1.270       .  A
O448        C456   1.274       .  A
O449        C458   1.272       .  A
O450        C459   1.276       .  A
O451        C458   1.277       .  A
O452        C459   1.274       .  A
O453        C460   1.274       .  A
O454        C460   1.272       .  A
C455       C1350   1.482       .  S
C456       C1281   1.483       .  S
C457       C1530   1.482       .  S
C458       C1321   1.481       .  S
C459       C2310   1.481       .  S
C460       C1261   1.483       .  S
Zn461       O465   1.963       .  S
Zn461       O466   2.059       .  S
Zn461       O470   2.043       .  S
Zn461       O477   2.059       .  S
Zn462       O465   1.914       .  S
Zn462       O467   1.984       .  S
Zn462       O469   1.967       .  S
Zn462       O473   1.981       .  S
Zn463       O465   1.937       .  S
Zn463       O468   2.007       .  S
Zn463       O471   2.030       .  S
Zn463       O474   2.009       .  S
Zn464       O465   1.942       .  S
Zn464       O472   2.017       .  S
Zn464       O475   2.039       .  S
Zn464       O476   1.997       .  S
O466        C478   1.280       .  A
O467        C479   1.270       .  A
O468        C480   1.275       .  A
O469        C478   1.270       .  A
O470        C480   1.278       .  A
O471        C479   1.274       .  A
O472        C481   1.276       .  A
O473        C482   1.269       .  A
O474        C481   1.275       .  A
O475        C482   1.276       .  A
O476        C483   1.273       .  A
O477        C483   1.280       .  A
C478       C1201   1.481       .  S
C479       C2550   1.477       .  S
C480       C1181   1.482       .  S
C481       C1230   1.478       .  S
C482       C1370   1.481       .  S
C483       C1250   1.486       .  S
Zn484       O488   1.943       .  S
Zn484       O489   2.006       .  S
Zn484       O493   2.023       .  S
Zn484       O500   1.999       .  S
Zn485       O488   1.975       .  S
Zn485       O490   2.064       .  S
Zn485       O492   2.044       .  S
Zn485       O496   2.058       .  S
Zn486       O488   1.926       .  S
Zn486       O491   1.999       .  S
Zn486       O494   1.961       .  S
Zn486       O497   1.989       .  S
Zn487       O488   1.953       .  S
Zn487       O495   2.041       .  S
Zn487       O498   1.989       .  S
Zn487       O499   2.025       .  S
O489        C501   1.274       .  A
O490        C502   1.280       .  A
O491        C503   1.271       .  A
O492        C501   1.277       .  A
O493        C503   1.273       .  A
O494        C502   1.269       .  A
O495        C504   1.276       .  A
O496        C505   1.279       .  A
O497        C504   1.270       .  A
O498        C505   1.272       .  A
O499        C506   1.276       .  A
O500        C506   1.273       .  A
C501       C2470   1.483       .  S
C502       C1210   1.482       .  S
C503       C1141   1.479       .  S
C504       C1161   1.482       .  S
C505       C1290   1.486       .  S
C506       C1221   1.479       .  S
Zn507       O511   1.951       .  S
Zn507       O512   2.000       .  S
Zn507       O516   2.023       .  S
Zn507       O523   2.027       .  S
Zn508       O511   1.964       .  S
Zn508       O513   1.998       .  S
Zn508       O515   2.032       .  S
Zn508       O519   2.054       .  S
Zn509       O511   1.975       .  S
Zn509       O514   2.044       .  S
Zn509       O517   2.039       .  S
Zn509       O520   2.052       .  S
Zn510       O511   1.936       .  S
Zn510       O518   1.984       .  S
Zn510       O521   2.001       .  S
Zn510       O522   2.006       .  S
O512        C524   1.274       .  A
O513        C525   1.272       .  A
O514        C526   1.277       .  A
O515        C524   1.277       .  A
O516        C526   1.275       .  A
O517        C525   1.277       .  A
O518        C527   1.272       .  A
O519        C528   1.277       .  A
O520        C527   1.278       .  A
O521        C528   1.271       .  A
O522        C529   1.272       .  A
O523        C529   1.274       .  A
C524       C1101   1.479       .  S
C525       C1510   1.481       .  S
C526       C2090   1.490       .  S
C527       C1121   1.478       .  S
C528       C1241   1.486       .  S
C529       C1081   1.483       .  S
Zn530       O534   1.954       .  S
Zn530       O535   2.042       .  S
Zn530       O539   2.002       .  S
Zn530       O546   2.026       .  S
Zn531       O534   1.931       .  S
Zn531       O536   1.983       .  S
Zn531       O538   1.988       .  S
Zn531       O542   2.012       .  S
Zn532       O534   1.973       .  S
Zn532       O537   2.065       .  S
Zn532       O540   2.054       .  S
Zn532       O543   2.031       .  S
Zn533       O534   1.944       .  S
Zn533       O541   1.999       .  S
Zn533       O544   2.028       .  S
Zn533       O545   2.003       .  S
O535        C547   1.276       .  A
O536        C548   1.271       .  A
O537        C549   1.279       .  A
O538        C547   1.271       .  A
O539        C549   1.274       .  A
O540        C548   1.278       .  A
O541        C550   1.273       .  A
O542        C551   1.272       .  A
O543        C550   1.276       .  A
O544        C551   1.274       .  A
O545        C552   1.274       .  A
O546        C552   1.275       .  A
C547       C1170   1.479       .  S
C548       C1110   1.480       .  S
C549       C1410   1.490       .  S
C550       C2050   1.474       .  S
C551       C1061   1.484       .  S
C552       C1130   1.481       .  S
Zn553       O557   1.933       .  S
Zn553       O558   2.011       .  S
Zn553       O562   1.991       .  S
Zn553       O569   1.986   1_554  S
Zn554       O557   1.954       .  S
Zn554       O559   2.017       .  S
Zn554       O561   2.048       .  S
Zn554       O565   2.026       .  S
Zn555       O557   1.960       .  S
Zn555       O560   2.037       .  S
Zn555       O563   2.016       .  S
Zn555       O566   2.012       .  S
Zn556       O557   1.964       .  S
Zn556       O564   2.028       .  S
Zn556       O567   2.016       .  S
Zn556       O568   2.041   1_554  S
O558        C570   1.274       .  A
O559        C571   1.275       .  A
O560        C572   1.275       .  A
O561        C570   1.277       .  A
O562        C572   1.271       .  A
O563        C571   1.275       .  A
O564        C573   1.276       .  A
O565        C574   1.276       .  A
O566        C573   1.273       .  A
O567        C574   1.274       .  A
O568        C575   1.277       .  A
O569        C575   1.271       .  A
C570       C1310   1.486       .  S
C571       C1010   1.478       .  S
C572       C1050   1.481       .  S
C573       C1021   1.481       .  S
C574       C1930   1.483       .  S
C575        C990   1.475       .  S
Zn576       O580   1.973       .  S
Zn576       O581   2.043       .  S
Zn576       O585   2.029       .  S
Zn576       O592   2.049       .  S
Zn577       O580   1.957       .  S
Zn577       O582   2.021       .  S
Zn577       O584   2.005       .  S
Zn577       O588   2.048       .  S
Zn578       O580   1.945       .  S
Zn578       O583   1.998       .  S
Zn578       O586   2.007       .  S
Zn578       O589   2.023       .  S
Zn579       O580   1.929       .  S
Zn579       O587   2.005       .  S
Zn579       O590   1.977       .  S
Zn579       O591   1.982       .  S
O581        C593   1.277       .  A
O582        C594   1.275       .  A
O583        C595   1.272       .  A
O584        C593   1.273       .  A
O585        C595   1.275       .  A
O586        C594   1.274       .  A
O587        C596   1.271       .  A
O588        C597   1.276       .  A
O589        C596   1.273       .  A
O590        C597   1.269       .  A
O591        C598   1.272       .  A
O592        C598   1.278       .  A
C593        C941   1.481       .  S
C594        C981   1.479       .  S
C595       C1870   1.477       .  S
C596       C1270   1.478       .  S
C597        C961   1.481       .  S
C598       C1001   1.480       .  S
Zn599       O603   1.962       .  S
Zn599       O604   2.011       .  S
Zn599       O608   2.028       .  S
Zn599       O615   2.018       .  S
Zn600       O603   1.957       .  S
Zn600       O605   2.030       .  S
Zn600       O607   2.020       .  S
Zn600       O611   2.006       .  S
Zn601       O603   1.938       .  S
Zn601       O606   1.995       .  S
Zn601       O609   1.997       .  S
Zn601       O612   2.016       .  S
Zn602       O603   1.953       .  S
Zn602       O610   2.029       .  S
Zn602       O613   2.027       .  S
Zn602       O614   2.018       .  S
O604        C616   1.273       .  A
O605        C617   1.275       .  A
O606        C618   1.271       .  A
O607        C616   1.274       .  A
O608        C618   1.274       .  A
O609        C617   1.273       .  A
O610        C619   1.275       .  A
O611        C620   1.273       .  A
O612        C619   1.274       .  A
O613        C620   1.275       .  A
O614        C621   1.275       .  A
O615        C621   1.275       .  A
C616        C970   1.473       .  S
C617        C910   1.478       .  S
C618        C930   1.479       .  S
C619       C1570   1.485       .  S
C620       C1450   1.481       .  S
C621        C890   1.478       .  S
Zn622       O626   1.951       .  S
Zn622       O627   2.016   1_556  S
Zn622       O631   1.998       .  S
Zn622       O638   2.023       .  S
Zn623       O626   1.954       .  S
Zn623       O628   2.017       .  S
Zn623       O630   2.018   1_556  S
Zn623       O634   2.041       .  S
Zn624       O626   1.964       .  S
Zn624       O629   2.037       .  S
Zn624       O632   2.014       .  S
Zn624       O635   2.040       .  S
Zn625       O626   1.934       .  S
Zn625       O633   1.991       .  S
Zn625       O636   2.000       .  S
Zn625       O637   1.989       .  S
O627        C639   1.275       .  A
O628        C640   1.275       .  A
O629        C641   1.276       .  A
O630        C639   1.275       .  A
O631        C641   1.271       .  A
O632        C640   1.274       .  A
O633        C642   1.272       .  A
O634        C643   1.275       .  A
O635        C642   1.277       .  A
O636        C643   1.272       .  A
O637        C644   1.270       .  A
O638        C644   1.274       .  A
C639        C901   1.478       .  S
C640       C1390   1.477       .  S
C641       C1041   1.482       .  S
C642        C881   1.481       .  S
C643       C1550   1.484       .  S
C644        C861   1.471       .  S
Zn645       O649   1.961       .  S
Zn645       O650   2.019       .  S
Zn645       O654   2.008       .  S
Zn645       O661   2.049       .  S
Zn646       O649   1.945       .  S
Zn646       O651   2.019       .  S
Zn646       O653   2.014       .  S
Zn646       O657   2.022       .  S
Zn647       O649   1.958       .  S
Zn647       O652   2.020       .  S
Zn647       O655   2.032       .  S
Zn647       O658   2.042       .  S
Zn648       O649   1.925       .  S
Zn648       O656   1.988       .  S
Zn648       O659   2.006       .  S
Zn648       O660   1.982       .  S
O650        C662   1.276       .  A
O651        C663   1.274       .  A
O652        C664   1.275       .  A
O653        C662   1.276       .  A
O654        C664   1.273       .  A
O655        C663   1.275       .  A
O656        C665   1.272       .  A
O657        C666   1.274       .  A
O658        C665   1.278       .  A
O659        C666   1.273       .  A
O660        C667   1.270       .  A
O661        C667   1.276       .  A
C662        C801   1.480       .  S
C663       C1661   1.482       .  S
C664        C921   1.479       .  S
C665        C830   1.482       .  S
C666       C1090   1.477       .  S
C667        C841   1.484       .  S
Zn668       O672   1.928       .  S
Zn668       O673   1.986       .  S
Zn668       O677   2.001       .  S
Zn668       O684   1.977       .  S
Zn669       O672   1.965       .  S
Zn669       O674   2.044       .  S
Zn669       O676   2.044       .  S
Zn669       O680   2.043       .  S
Zn670       O672   1.939       .  S
Zn670       O675   2.016       .  S
Zn670       O678   1.996       .  S
Zn670       O681   1.981       .  S
Zn671       O672   1.965       .  S
Zn671       O679   2.036       .  S
Zn671       O682   2.004       .  S
Zn671       O683   2.047       .  S
O673        C685   1.272       .  A
O674        C686   1.277       .  A
O675        C687   1.272       .  A
O676        C685   1.278       .  A
O677        C687   1.271       .  A
O678        C686   1.272       .  A
O679        C688   1.277       .  A
O680        C689   1.278       .  A
O681        C688   1.271       .  A
O682        C689   1.273       .  A
O683        C690   1.276       .  A
O684        C690   1.269       .  A
C685        C821   1.481       .  S
C686       C1070   1.484       .  S
C687       C1621   1.477       .  S
C688        C810   1.479       .  S
C689        C781   1.485       .  S
C690        C870   1.480       .  S
Zn691       O695   1.944       .  S
Zn691       O696   2.024       .  S
Zn691       O700   2.015       .  S
Zn691       O707   1.999       .  S
Zn692       O695   1.929       .  S
Zn692       O697   1.990       .  S
Zn692       O699   2.006       .  S
Zn692       O703   2.000       .  S
Zn693       O695   1.960       .  S
Zn693       O698   2.020       .  S
Zn693       O701   2.037       .  S
Zn693       O704   2.033       .  S
Zn694       O695   1.958       .  S
Zn694       O702   2.004       .  S
Zn694       O705   2.031       .  S
Zn694       O706   2.022       .  S
O696        C708   1.274       .  A
O697        C709   1.272       .  A
O698        C710   1.274       .  A
O699        C708   1.273       .  A
O700        C710   1.274       .  A
O701        C709   1.277       .  A
O702        C711   1.273       .  A
O703        C712   1.272       .  A
O704        C711   1.277       .  A
O705        C712   1.275       .  A
O706        C713   1.275       .  A
O707        C713   1.274       .  A
C708       C1781   1.482       .  S
C709        C741   1.478       .  S
C710       C1190   1.482       .  S
C711        C850   1.481       .  S
C712       C1030   1.482       .  S
C713        C770   1.479       .  S
Zn714       O718   1.925       .  S
Zn714       O719   1.985       .  S
Zn714       O723   1.977       .  S
Zn714       O730   2.000       .  S
Zn715       O718   1.958       .  S
Zn715       O720   1.994       .  S
Zn715       O722   2.047       .  S
Zn715       O726   2.021       .  S
Zn716       O718   1.971       .  S
Zn716       O721   2.051       .  S
Zn716       O724   2.054       .  S
Zn716       O727   2.038       .  S
Zn717       O718   1.945       .  S
Zn717       O725   2.007       .  S
Zn717       O728   1.998       .  S
Zn717       O729   2.026       .  S
O719        C731   1.270       .  A
O720        C732   1.272       .  A
O721        C733   1.279       .  A
O722        C731   1.276       .  A
O723        C733   1.271       .  A
O724        C732   1.279       .  A
O725        C734   1.273       .  A
O726        C735   1.275       .  A
O727        C734   1.277       .  A
O728        C735   1.274       .  A
O729        C736   1.274       .  A
O730        C736   1.272       .  A
C731        C790   1.482       .  S
C732        C950   1.484       .  S
C733        C750   1.480       .  S
C734       C1750   1.483       .  S
C735        C761   1.479       .  S
C736       C1150   1.479       .  S
C737        C738   1.408       .  A
C737        C742   1.399   1_556  A
C737        H747   1.083       .  S
C738        C743   1.482       .  S
C738        C739   1.402       .  A
C739        C740   1.395   1_556  A
C739        H744   1.083       .  S
C740        C741   1.407       .  A
C740        H745   1.083       .  S
C741        C742   1.403       .  A
C742        H746   1.083       .  S
C743        C748   1.401       .  A
C743        C752   1.408       .  A
C748        C749   1.393       .  A
C748        H753   1.083       .  S
C749        C750   1.408       .  A
C749        H754   1.083       .  S
C750        C751   1.404       .  A
C751        C752   1.401       .  A
C751        H755   1.083       .  S
C752        H756   1.083       .  S
C757        C758   1.405       .  A
C757        C762   1.392       .  A
C757        H767   1.083       .  S
C758        C763   1.485       .  S
C758        C759   1.407       .  A
C759        C760   1.400       .  A
C759        H764   1.083       .  S
C760        C761   1.406       .  A
C760        H765   1.083       .  S
C761        C762   1.404       .  A
C762        H766   1.083       .  S
C763        C768   1.407       .  A
C763        C772   1.405       .  A
C768        C769   1.400       .  A
C768        H773   1.083       .  S
C769        C770   1.406       .  A
C769        H774   1.083       .  S
C770        C771   1.404       .  A
C771        C772   1.391       .  A
C771        H775   1.083       .  S
C772        H776   1.082       .  S
C777        C778   1.409       .  A
C777        C782   1.400       .  A
C777        H787   1.082       .  S
C778        C783   1.491       .  S
C778        C779   1.405       .  A
C779        C780   1.397       .  A
C779        H784   1.083       .  S
C780        C781   1.408       .  A
C780        H785   1.082       .  S
C781        C782   1.405       .  A
C782        H786   1.083       .  S
C783        C788   1.404       .  A
C783        C792   1.411       .  A
C788        C789   1.395       .  A
C788        H793   1.083       .  S
C789        C790   1.407       .  A
C789        H794   1.083       .  S
C790        C791   1.403       .  A
C791        C792   1.402       .  A
C791        H795   1.084       .  S
C792        H796   1.082       .  S
C797        C798   1.405       .  A
C797        C802   1.398       .  A
C797        H807   1.083       .  S
C798        C803   1.485       .  S
C798        C799   1.406       .  A
C799        C800   1.395       .  A
C799        H804   1.083       .  S
C800        C801   1.405       .  A
C800        H805   1.083       .  S
C801        C802   1.406       .  A
C802        H806   1.083       .  S
C803        C808   1.403       .  A
C803        C812   1.408       .  A
C808        C809   1.392       .  A
C808        H813   1.083       .  S
C809        C810   1.406       .  A
C809        H814   1.083       .  S
C810        C811   1.405       .  A
C811        C812   1.400       .  A
C811        H815   1.083       .  S
C812        H816   1.083       .  S
C817        C818   1.409       .  A
C817        C822   1.400   1_554  A
C817        H827   1.082       .  S
C818        C823   1.486       .  S
C818        C819   1.403       .  A
C819        C820   1.394   1_554  A
C819        H824   1.083       .  S
C820        C821   1.407       .  A
C820        H825   1.083       .  S
C821        C822   1.404       .  A
C822        H826   1.083       .  S
C823        C828   1.403       .  A
C823        C832   1.409       .  A
C828        C829   1.393       .  A
C828        H833   1.083       .  S
C829        C830   1.407       .  A
C829        H834   1.083       .  S
C830        C831   1.405       .  A
C831        C832   1.401       .  A
C831        H835   1.083       .  S
C832        H836   1.082       .  S
C837        C838   1.411       .  A
C837        C842   1.404       .  A
C837        H847   1.082       .  S
C838        C843   1.492       .  S
C838        C839   1.404       .  A
C839        C840   1.393       .  A
C839        H844   1.082       .  S
C840        C841   1.407       .  A
C840        H845   1.083       .  S
C841        C842   1.404       .  A
C842        H846   1.083       .  S
C843        C848   1.406       .  A
C843        C852   1.409       .  A
C848        C849   1.398       .  A
C848        H853   1.082       .  S
C849        C850   1.406       .  A
C849        H854   1.083       .  S
C850        C851   1.403       .  A
C851        C852   1.398       .  A
C851        H855   1.083       .  S
C852        H856   1.082       .  S
C857        C858   1.405       .  A
C857        C862   1.394       .  A
C857        H867   1.083       .  S
C858        C863   1.482       .  S
C858        C859   1.406       .  A
C859        C860   1.399       .  A
C859        H864   1.083       .  S
C860        C861   1.403       .  A
C860        H865   1.083       .  S
C861        C862   1.403       .  A
C862        H866   1.083       .  S
C863        C868   1.402       .  A
C863        C872   1.407       .  A
C868        C869   1.392       .  A
C868        H873   1.083       .  S
C869        C870   1.407       .  A
C869        H874   1.083       .  S
C870        C871   1.405       .  A
C871        C872   1.401       .  A
C871        H875   1.083       .  S
C872        H876   1.083       .  S
C877        C878   1.401       .  A
C877        C882   1.395       .  A
C877        H887   1.083       .  S
C878        C883   1.477       .  S
C878        C879   1.405       .  A
C879        C880   1.400       .  A
C879        H884   1.083       .  S
C880        C881   1.405       .  A
C880        H885   1.083       .  S
C881        C882   1.408       .  A
C882        H886   1.083       .  S
C883        C888   1.404       .  A
C883        C892   1.402       .  A
C888        C889   1.399       .  A
C888        H893   1.083       .  S
C889        C890   1.406       .  A
C889        H894   1.083       .  S
C890        C891   1.406       .  A
C891        C892   1.396       .  A
C891        H895   1.083       .  S
C892        H896   1.083       .  S
C897        C898   1.405       .  A
C897        C902   1.397       .  A
C897        H907   1.083       .  S
C898        C903   1.480       .  S
C898        C899   1.404       .  A
C899        C900   1.397       .  A
C899        H904   1.083       .  S
C900        C901   1.406       .  A
C900        H905   1.083       .  S
C901        C902   1.405       .  A
C902        H906   1.083       .  S
C903        C908   1.403       .  A
C903        C912   1.406       .  A
C908        C909   1.394       .  A
C908        H913   1.083       .  S
C909        C910   1.405       .  A
C909        H914   1.083       .  S
C910        C911   1.405       .  A
C911        C912   1.401       .  A
C911        H915   1.083       .  S
C912        H916   1.083       .  S
C917        C918   1.406       .  A
C917        C922   1.398       .  A
C917        H927   1.083       .  S
C918        C923   1.488       .  S
C918        C919   1.408       .  A
C919        C920   1.396       .  A
C919        H924   1.082       .  S
C920        C921   1.404       .  A
C920        H925   1.083       .  S
C921        C922   1.406       .  A
C922        H926   1.083       .  S
C923        C928   1.409       .  A
C923        C932   1.405       .  A
C928        C929   1.401       .  A
C928        H933   1.082       .  S
C929        C930   1.404       .  A
C929        H934   1.083       .  S
C930        C931   1.405       .  A
C931        C932   1.393       .  A
C931        H935   1.083       .  S
C932        H936   1.083       .  S
C937        C938   1.402       .  A
C937        C942   1.397       .  A
C937        H947   1.084       .  S
C938        C943   1.483       .  S
C938        C939   1.407       .  A
C939        C940   1.401       .  A
C939        H944   1.083       .  S
C940        C941   1.404       .  A
C940        H945   1.083       .  S
C941        C942   1.408       .  A
C942        H946   1.083       .  S
C943        C948   1.408       .  A
C943        C952   1.401       .  A
C948        C949   1.403       .  A
C948        H953   1.082       .  S
C949        C950   1.405       .  A
C949        H954   1.083       .  S
C950        C951   1.408       .  A
C951        C952   1.395       .  A
C951        H955   1.083       .  S
C952        H956   1.084       .  S
C957        C958   1.409       .  A
C957        C962   1.402       .  A
C957        H967   1.082       .  S
C958        C963   1.487       .  S
C958        C959   1.403       .  A
C959        C960   1.393       .  A
C959        H964   1.083       .  S
C960        C961   1.407       .  A
C960        H965   1.083       .  S
C961        C962   1.404       .  A
C962        H966   1.083       .  S
C963        C968   1.406       .  A
C963        C972   1.408       .  A
C968        C969   1.398       .  A
C968        H973   1.083       .  S
C969        C970   1.403       .  A
C969        H974   1.083       .  S
C970        C971   1.403       .  A
C971        C972   1.397       .  A
C971        H975   1.083       .  S
C972        H976   1.082       .  S
C977        C978   1.406       .  A
C977        C982   1.398       .  A
C977        H987   1.083       .  S
C978        C983   1.482       .  S
C978        C979   1.404       .  A
C979        C980   1.396       .  A
C979        H984   1.083       .  S
C980        C981   1.406       .  A
C980        H985   1.083       .  S
C981        C982   1.405       .  A
C982        H986   1.083       .  S
C983        C988   1.403       .  A
C983        C992   1.408       .  A
C988        C989   1.394       .  A
C988        H993   1.083       .  S
C989        C990   1.405       .  A
C989        H994   1.083       .  S
C990        C991   1.403       .  A
C991        C992   1.401       .  A
C991        H995   1.083       .  S
C992        H996   1.083       .  S
C997        C998   1.402       .  A
C997       C1002   1.392       .  A
C997       H1007   1.083       .  S
C998       C1003   1.483       .  S
C998        C999   1.408       .  A
C999       C1000   1.402       .  A
C999       H1004   1.083       .  S
C1000      C1001   1.405       .  A
C1000      H1005   1.083       .  S
C1001      C1002   1.407       .  A
C1002      H1006   1.083       .  S
C1003      C1008   1.406       .  A
C1003      C1012   1.404       .  A
C1008      C1009   1.396       .  A
C1008      H1013   1.083       .  S
C1009      C1010   1.404       .  A
C1009      H1014   1.083       .  S
C1010      C1011   1.406       .  A
C1011      C1012   1.398       .  A
C1011      H1015   1.083       .  S
C1012      H1016   1.083       .  S
C1017      C1018   1.407       .  A
C1017      C1022   1.399       .  A
C1017      H1027   1.083       .  S
C1018      C1023   1.491       .  S
C1018      C1019   1.408       .  A
C1019      C1020   1.397       .  A
C1019      H1024   1.082       .  S
C1020      C1021   1.404       .  A
C1020      H1025   1.083       .  S
C1021      C1022   1.406       .  A
C1022      H1026   1.083       .  S
C1023      C1028   1.409       .  A
C1023      C1032   1.405       .  A
C1028      C1029   1.401       .  A
C1028      H1033   1.082       .  S
C1029      C1030   1.405       .  A
C1029      H1034   1.083       .  S
C1030      C1031   1.406       .  A
C1031      C1032   1.394       .  A
C1031      H1035   1.083       .  S
C1032      H1036   1.083       .  S
C1037      C1038   1.405   1_554  A
C1037      C1042   1.396   1_554  A
C1037      H1047   1.082       .  S
C1038      C1043   1.491   1_556  S
C1038      C1039   1.409       .  A
C1039      C1040   1.400       .  A
C1039      H1044   1.082       .  S
C1040      C1041   1.404       .  A
C1040      H1045   1.083       .  S
C1041      C1042   1.406       .  A
C1042      H1046   1.083       .  S
C1043      C1048   1.404   1_554  A
C1043      C1052   1.411       .  A
C1048      C1049   1.394       .  A
C1048      H1053   1.082       .  S
C1049      C1050   1.406   1_556  A
C1049      H1054   1.083       .  S
C1050      C1051   1.404       .  A
C1051      C1052   1.401       .  A
C1051      H1055   1.083       .  S
C1052      H1056   1.082       .  S
C1057      C1058   1.402       .  A
C1057      C1062   1.399       .  A
C1057      H1067   1.083       .  S
C1058      C1063   1.476       .  S
C1058      C1059   1.402       .  A
C1059      C1060   1.400       .  A
C1059      H1064   1.083       .  S
C1060      C1061   1.407       .  A
C1060      H1065   1.083       .  S
C1061      C1062   1.408       .  A
C1062      H1066   1.083       .  S
C1063      C1068   1.403       .  A
C1063      C1072   1.400       .  A
C1068      C1069   1.401       .  A
C1068      H1073   1.083       .  S
C1069      C1070   1.407       .  A
C1069      H1074   1.083       .  S
C1070      C1071   1.409       .  A
C1071      C1072   1.397       .  A
C1071      H1075   1.083       .  S
C1072      H1076   1.083       .  S
C1077      C1078   1.408       .  A
C1077      C1082   1.400       .  A
C1077      H1087   1.082       .  S
C1078      C1083   1.491       .  S
C1078      C1079   1.407       .  A
C1079      C1080   1.396       .  A
C1079      H1084   1.082       .  S
C1080      C1081   1.405       .  A
C1080      H1085   1.083       .  S
C1081      C1082   1.405       .  A
C1082      H1086   1.083       .  S
C1083      C1088   1.408       .  A
C1083      C1092   1.408       .  A
C1088      C1089   1.399       .  A
C1088      H1093   1.082       .  S
C1089      C1090   1.404       .  A
C1089      H1094   1.083       .  S
C1090      C1091   1.404       .  A
C1091      C1092   1.397       .  A
C1091      H1095   1.083       .  S
C1092      H1096   1.082       .  S
C1097      C1098   1.405       .  A
C1097      C1102   1.401       .  A
C1097      H1107   1.083       .  S
C1098      C1103   1.480       .  S
C1098      C1099   1.403       .  A
C1099      C1100   1.394       .  A
C1099      H1104   1.083       .  S
C1100      C1101   1.405       .  A
C1100      H1105   1.083       .  S
C1101      C1102   1.406       .  A
C1102      H1106   1.083       .  S
C1103      C1108   1.406       .  A
C1103      C1112   1.401       .  A
C1108      C1109   1.403       .  A
C1108      H1113   1.083       .  S
C1109      C1110   1.406       .  A
C1109      H1114   1.083       .  S
C1110      C1111   1.407       .  A
C1111      C1112   1.392       .  A
C1111      H1115   1.083       .  S
C1112      H1116   1.083       .  S
C1117      C1118   1.407       .  A
C1117      C1122   1.403       .  A
C1117      H1127   1.083       .  S
C1118      C1123   1.480       .  S
C1118      C1119   1.401       .  A
C1119      C1120   1.392       .  A
C1119      H1124   1.083       .  S
C1120      C1121   1.405       .  A
C1120      H1125   1.083       .  S
C1121      C1122   1.405       .  A
C1122      H1126   1.083       .  S
C1123      C1128   1.404       .  A
C1123      C1132   1.403       .  A
C1128      C1129   1.401   1_554  A
C1128      H1133   1.083       .  S
C1129      C1130   1.407       .  A
C1129      H1134   1.083       .  S
C1130      C1131   1.405       .  A
C1131      C1132   1.394   1_556  A
C1131      H1135   1.083       .  S
C1132      H1136   1.083       .  S
C1137      C1138   1.408       .  A
C1137      C1142   1.400       .  A
C1137      H1147   1.082       .  S
C1138      C1143   1.490       .  S
C1138      C1139   1.407       .  A
C1139      C1140   1.395       .  A
C1139      H1144   1.082       .  S
C1140      C1141   1.404       .  A
C1140      H1145   1.083       .  S
C1141      C1142   1.405       .  A
C1142      H1146   1.083       .  S
C1143      C1148   1.408       .  A
C1143      C1152   1.407       .  A
C1148      C1149   1.400       .  A
C1148      H1153   1.082       .  S
C1149      C1150   1.405       .  A
C1149      H1154   1.083       .  S
C1150      C1151   1.404       .  A
C1151      C1152   1.394       .  A
C1151      H1155   1.083       .  S
C1152      H1156   1.082       .  S
C1157      C1158   1.408       .  A
C1157      C1162   1.400       .  A
C1157      H1167   1.083       .  S
C1158      C1163   1.484       .  S
C1158      C1159   1.402       .  A
C1159      C1160   1.396       .  A
C1159      H1164   1.083       .  S
C1160      C1161   1.408       .  A
C1160      H1165   1.083       .  S
C1161      C1162   1.404       .  A
C1162      H1166   1.083       .  S
C1163      C1168   1.402       .  A
C1163      C1172   1.409       .  A
C1168      C1169   1.393       .  A
C1168      H1173   1.083       .  S
C1169      C1170   1.406       .  A
C1169      H1174   1.083       .  S
C1170      C1171   1.404       .  A
C1171      C1172   1.402       .  A
C1171      H1175   1.083       .  S
C1172      H1176   1.083       .  S
C1177      C1178   1.408       .  A
C1177      C1182   1.402       .  A
C1177      H1187   1.083       .  S
C1178      C1183   1.490       .  S
C1178      C1179   1.405       .  A
C1179      C1180   1.394       .  A
C1179      H1184   1.083       .  S
C1180      C1181   1.405       .  A
C1180      H1185   1.083       .  S
C1181      C1182   1.406       .  A
C1182      H1186   1.083       .  S
C1183      C1188   1.407       .  A
C1183      C1192   1.407       .  A
C1188      C1189   1.401       .  A
C1188      H1193   1.082       .  S
C1189      C1190   1.407       .  A
C1189      H1194   1.083       .  S
C1190      C1191   1.404       .  A
C1191      C1192   1.396       .  A
C1191      H1195   1.083       .  S
C1192      H1196   1.083       .  S
C1197      C1198   1.400       .  A
C1197      C1202   1.392   1_556  A
C1197      H1207   1.083       .  S
C1198      C1203   1.483       .  S
C1198      C1199   1.409       .  A
C1199      C1200   1.401   1_556  A
C1199      H1204   1.083       .  S
C1200      C1201   1.403       .  A
C1200      H1205   1.083       .  S
C1201      C1202   1.409       .  A
C1202      H1206   1.083       .  S
C1203      C1208   1.400       .  A
C1203      C1212   1.410       .  A
C1208      C1209   1.392       .  A
C1208      H1213   1.083       .  S
C1209      C1210   1.410       .  A
C1209      H1214   1.083       .  S
C1210      C1211   1.403       .  A
C1211      C1212   1.402       .  A
C1211      H1215   1.083       .  S
C1212      H1216   1.083       .  S
C1217      C1218   1.405       .  A
C1217      C1222   1.398       .  A
C1217      H1227   1.083       .  S
C1218      C1223   1.480       .  S
C1218      C1219   1.404       .  A
C1219      C1220   1.395       .  A
C1219      H1224   1.083       .  S
C1220      C1221   1.406       .  A
C1220      H1225   1.083       .  S
C1221      C1222   1.405       .  A
C1222      H1226   1.083       .  S
C1223      C1228   1.404       .  A
C1223      C1232   1.404       .  A
C1228      C1229   1.397       .  A
C1228      H1233   1.083       .  S
C1229      C1230   1.406       .  A
C1229      H1234   1.083       .  S
C1230      C1231   1.406       .  A
C1231      C1232   1.396       .  A
C1231      H1235   1.083       .  S
C1232      H1236   1.083       .  S
C1237      C1238   1.406       .  A
C1237      C1242   1.397       .  A
C1237      H1247   1.082       .  S
C1238      C1243   1.497       .  S
C1238      C1239   1.412       .  A
C1239      C1240   1.404       .  A
C1239      H1244   1.082       .  S
C1240      C1241   1.405       .  A
C1240      H1245   1.083       .  S
C1241      C1242   1.406       .  A
C1242      H1246   1.083       .  S
C1243      C1248   1.406       .  A
C1243      C1252   1.412       .  A
C1248      C1249   1.398       .  A
C1248      H1253   1.082       .  S
C1249      C1250   1.408       .  A
C1249      H1254   1.083       .  S
C1250      C1251   1.403       .  A
C1251      C1252   1.402       .  A
C1251      H1255   1.083       .  S
C1252      H1256   1.082       .  S
C1257      C1258   1.407       .  A
C1257      C1262   1.398       .  A
C1257      H1267   1.082       .  S
C1258      C1263   1.489   1_655  S
C1258      C1259   1.407       .  A
C1259      C1260   1.399       .  A
C1259      H1264   1.083       .  S
C1260      C1261   1.405       .  A
C1260      H1265   1.083       .  S
C1261      C1262   1.406       .  A
C1262      H1266   1.083       .  S
C1263      C1268   1.407       .  A
C1263      C1272   1.407       .  A
C1268      C1269   1.398       .  A
C1268      H1273   1.083       .  S
C1269      C1270   1.405       .  A
C1269      H1274   1.083       .  S
C1270      C1271   1.403       .  A
C1271      C1272   1.398       .  A
C1271      H1275   1.083       .  S
C1272      H1276   1.082       .  S
C1277      C1278   1.405       .  A
C1277      C1282   1.401       .  A
C1277      H1287   1.083       .  S
C1278      C1283   1.483       .  S
C1278      C1279   1.404       .  A
C1279      C1280   1.398       .  A
C1279      H1284   1.083       .  S
C1280      C1281   1.407       .  A
C1280      H1285   1.083       .  S
C1281      C1282   1.406       .  A
C1282      H1286   1.083       .  S
C1283      C1288   1.406       .  A
C1283      C1292   1.401       .  A
C1288      C1289   1.403       .  A
C1288      H1293   1.083       .  S
C1289      C1290   1.406       .  A
C1289      H1294   1.083       .  S
C1290      C1291   1.409       .  A
C1291      C1292   1.396       .  A
C1291      H1295   1.083       .  S
C1292      H1296   1.083       .  S
C1297      C1298   1.405       .  A
C1297      C1302   1.403       .  A
C1297      H1307   1.083       .  S
C1298      C1303   1.485   1_655  S
C1298      C1299   1.404       .  A
C1299      C1300   1.399       .  A
C1299      H1304   1.083       .  S
C1300      C1301   1.408       .  A
C1300      H1305   1.083       .  S
C1301      C1302   1.408       .  A
C1302      H1306   1.083       .  S
C1303      C1308   1.406       .  A
C1303      C1312   1.403       .  A
C1308      C1309   1.404       .  A
C1308      H1313   1.083       .  S
C1309      C1310   1.407       .  A
C1309      H1314   1.083       .  S
C1310      C1311   1.407       .  A
C1311      C1312   1.398       .  A
C1311      H1315   1.083       .  S
C1312      H1316   1.083       .  S
C1317      C1318   1.405       .  A
C1317      C1322   1.395       .  A
C1317      H1327   1.082       .  S
C1318      C1323   1.487       .  S
C1318      C1319   1.408       .  A
C1319      C1320   1.399       .  A
C1319      H1324   1.083       .  S
C1320      C1321   1.405       .  A
C1320      H1325   1.083       .  S
C1321      C1322   1.406       .  A
C1322      H1326   1.083       .  S
C1323      C1328   1.406       .  A
C1323      C1332   1.407       .  A
C1328      C1329   1.395       .  A
C1328      H1333   1.083       .  S
C1329      C1330   1.405       .  A
C1329      H1334   1.083       .  S
C1330      C1331   1.406       .  A
C1331      C1332   1.399       .  A
C1331      H1335   1.083       .  S
C1332      H1336   1.082       .  S
C1337      C1338   1.403       .  A
C1337      C1342   1.395       .  A
C1337      H1347   1.083       .  S
C1338      C1343   1.485       .  S
C1338      C1339   1.408       .  A
C1339      C1340   1.400       .  A
C1339      H1344   1.083       .  S
C1340      C1341   1.405       .  A
C1340      H1345   1.083       .  S
C1341      C1342   1.407       .  A
C1342      H1346   1.083       .  S
C1343      C1348   1.403       .  A
C1343      C1352   1.408       .  A
C1348      C1349   1.394       .  A
C1348      H1353   1.083       .  S
C1349      C1350   1.407       .  A
C1349      H1354   1.083       .  S
C1350      C1351   1.405       .  A
C1351      C1352   1.401       .  A
C1351      H1355   1.083       .  S
C1352      H1356   1.083       .  S
C1357      C1358   1.400       .  A
C1357      C1362   1.394       .  A
C1357      H1367   1.083       .  S
C1358      C1363   1.477       .  S
C1358      C1359   1.406       .  A
C1359      C1360   1.402       .  A
C1359      H1364   1.083       .  S
C1360      C1361   1.405       .  A
C1360      H1365   1.083       .  S
C1361      C1362   1.408       .  A
C1362      H1366   1.083       .  S
C1363      C1368   1.406       .  A
C1363      C1372   1.400       .  A
C1368      C1369   1.401       .  A
C1368      H1373   1.083       .  S
C1369      C1370   1.405       .  A
C1369      H1374   1.083       .  S
C1370      C1371   1.409       .  A
C1371      C1372   1.394       .  A
C1371      H1375   1.083       .  S
C1372      H1376   1.083       .  S
C1377      C1378   1.404       .  A
C1377      C1382   1.399       .  A
C1377      H1387   1.083       .  S
C1378      C1383   1.480   1_655  S
C1378      C1379   1.404       .  A
C1379      C1380   1.396       .  A
C1379      H1384   1.083       .  S
C1380      C1381   1.405       .  A
C1380      H1385   1.083       .  S
C1381      C1382   1.406       .  A
C1382      H1386   1.083       .  S
C1383      C1388   1.404       .  A
C1383      C1392   1.404       .  A
C1388      C1389   1.398       .  A
C1388      H1393   1.083       .  S
C1389      C1390   1.405       .  A
C1389      H1394   1.083       .  S
C1390      C1391   1.405       .  A
C1391      C1392   1.397       .  A
C1391      H1395   1.083       .  S
C1392      H1396   1.083       .  S
C1397      C1398   1.405       .  A
C1397      C1402   1.395       .  A
C1397      H1407   1.083       .  S
C1398      C1403   1.491       .  S
C1398      C1399   1.408       .  A
C1399      C1400   1.406       .  A
C1399      H1404   1.082       .  S
C1400      C1401   1.408       .  A
C1400      H1405   1.083       .  S
C1401      C1402   1.406       .  A
C1402      H1406   1.083       .  S
C1403      C1408   1.403       .  A
C1403      C1412   1.409       .  A
C1408      C1409   1.394       .  A
C1408      H1413   1.083       .  S
C1409      C1410   1.406       .  A
C1409      H1414   1.083       .  S
C1410      C1411   1.408       .  A
C1411      C1412   1.408       .  A
C1411      H1415   1.082       .  S
C1412      H1416   1.083       .  S
C1417      C1418   1.406       .  A
C1417      C1422   1.397       .  A
C1417      H1427   1.083   1_556  S
C1418      C1423   1.493       .  S
C1418      C1419   1.410       .  A
C1419      C1420   1.402       .  A
C1419      H1424   1.082       .  S
C1420      C1421   1.404       .  A
C1420      H1425   1.084       .  S
C1421      C1422   1.406       .  A
C1422      H1426   1.083       .  S
C1423      C1428   1.410   1_556  A
C1423      C1432   1.405       .  A
C1428      C1429   1.402       .  A
C1428      H1433   1.082       .  S
C1429      C1430   1.404       .  A
C1429      H1434   1.084       .  S
C1430      C1431   1.407   1_554  A
C1431      C1432   1.397       .  A
C1431      H1435   1.082       .  S
C1432      H1436   1.083       .  S
C1437      C1438   1.403       .  A
C1437      C1442   1.395       .  A
C1437      H1447   1.083       .  S
C1438      C1443   1.480   1_655  S
C1438      C1439   1.406       .  A
C1439      C1440   1.401       .  A
C1439      H1444   1.083       .  S
C1440      C1441   1.405       .  A
C1440      H1445   1.083       .  S
C1441      C1442   1.405       .  A
C1442      H1446   1.083       .  S
C1443      C1448   1.403       .  A
C1443      C1452   1.404       .  A
C1448      C1449   1.396       .  A
C1448      H1453   1.084       .  S
C1449      C1450   1.406       .  A
C1449      H1454   1.083       .  S
C1450      C1451   1.406       .  A
C1451      C1452   1.400       .  A
C1451      H1455   1.083       .  S
C1452      H1456   1.083       .  S
C1457      C1458   1.407       .  A
C1457      C1462   1.404       .  A
C1457      H1467   1.083       .  S
C1458      C1463   1.483       .  S
C1458      C1459   1.403       .  A
C1459      C1460   1.393       .  A
C1459      H1464   1.083       .  S
C1460      C1461   1.406       .  A
C1460      H1465   1.083       .  S
C1461      C1462   1.406       .  A
C1462      H1466   1.083       .  S
C1463      C1468   1.406       .  A
C1463      C1472   1.404       .  A
C1468      C1469   1.402       .  A
C1468      H1473   1.083       .  S
C1469      C1470   1.407       .  A
C1469      H1474   1.083       .  S
C1470      C1471   1.406       .  A
C1471      C1472   1.394       .  A
C1471      H1475   1.083       .  S
C1472      H1476   1.083       .  S
C1477      C1478   1.403       .  A
C1477      C1482   1.395       .  A
C1477      H1487   1.083       .  S
C1478      C1483   1.482       .  S
C1478      C1479   1.407       .  A
C1479      C1480   1.401       .  A
C1479      H1484   1.083       .  S
C1480      C1481   1.405       .  A
C1480      H1485   1.083       .  S
C1481      C1482   1.406       .  A
C1482      H1486   1.083       .  S
C1483      C1488   1.405       .  A
C1483      C1492   1.404       .  A
C1488      C1489   1.398       .  A
C1488      H1493   1.083       .  S
C1489      C1490   1.405       .  A
C1489      H1494   1.083       .  S
C1490      C1491   1.407       .  A
C1491      C1492   1.399       .  A
C1491      H1495   1.083       .  S
C1492      H1496   1.083       .  S
C1497      C1498   1.403       .  A
C1497      C1502   1.395       .  A
C1497      H1507   1.083       .  S
C1498      C1503   1.484       .  S
C1498      C1499   1.406       .  A
C1499      C1500   1.402       .  A
C1499      H1504   1.083       .  S
C1500      C1501   1.407       .  A
C1500      H1505   1.083       .  S
C1501      C1502   1.406       .  A
C1502      H1506   1.083       .  S
C1503      C1508   1.404       .  A
C1503      C1512   1.406       .  A
C1508      C1509   1.395       .  A
C1508      H1513   1.083       .  S
C1509      C1510   1.406       .  A
C1509      H1514   1.083       .  S
C1510      C1511   1.406       .  A
C1511      C1512   1.402       .  A
C1511      H1515   1.083       .  S
C1512      H1516   1.083       .  S
C1517      C1518   1.401       .  A
C1517      C1522   1.397       .  A
C1517      H1527   1.083       .  S
C1518      C1523   1.477       .  S
C1518      C1519   1.406       .  A
C1519      C1520   1.398       .  A
C1519      H1524   1.083       .  S
C1520      C1521   1.403       .  A
C1520      H1525   1.083       .  S
C1521      C1522   1.409       .  A
C1522      H1526   1.083       .  S
C1523      C1528   1.407       .  A
C1523      C1532   1.399       .  A
C1528      C1529   1.403       .  A
C1528      H1533   1.083       .  S
C1529      C1530   1.406       .  A
C1529      H1534   1.083       .  S
C1530      C1531   1.408       .  A
C1531      C1532   1.391       .  A
C1531      H1535   1.083       .  S
C1532      H1536   1.083       .  S
C1537      C1538   1.405       .  A
C1537      C1542   1.401       .  A
C1537      H1547   1.083   1_556  S
C1538      C1543   1.483       .  S
C1538      C1539   1.404       .  A
C1539      C1540   1.397       .  A
C1539      H1544   1.083       .  S
C1540      C1541   1.405       .  A
C1540      H1545   1.083       .  S
C1541      C1542   1.406       .  A
C1542      H1546   1.083       .  S
C1543      C1548   1.406       .  A
C1543      C1552   1.403       .  A
C1548      C1549   1.402       .  A
C1548      H1553   1.083   1_556  S
C1549      C1550   1.407       .  A
C1549      H1554   1.083   1_556  S
C1550      C1551   1.407       .  A
C1551      C1552   1.396       .  A
C1551      H1555   1.083       .  S
C1552      H1556   1.083       .  S
C1557      C1558   1.406       .  A
C1557      C1562   1.401       .  A
C1557      H1567   1.083       .  S
C1558      C1563   1.483       .  S
C1558      C1559   1.404       .  A
C1559      C1560   1.397       .  A
C1559      H1564   1.083       .  S
C1560      C1561   1.405       .  A
C1560      H1565   1.083       .  S
C1561      C1562   1.405       .  A
C1562      H1566   1.083       .  S
C1563      C1568   1.404       .  A
C1563      C1572   1.404       .  A
C1568      C1569   1.400       .  A
C1568      H1573   1.083       .  S
C1569      C1570   1.407       .  A
C1569      H1574   1.083       .  S
C1570      C1571   1.407       .  A
C1571      C1572   1.398       .  A
C1571      H1575   1.083       .  S
C1572      H1576   1.083       .  S
C1577      C1578   1.407       .  A
C1577      C1582   1.401       .  A
C1577      H1587   1.083       .  S
C1578      C1583   1.479       .  S
C1578      C1579   1.402       .  A
C1579      C1580   1.393       .  A
C1579      H1584   1.083       .  S
C1580      C1581   1.405       .  A
C1580      H1585   1.083       .  S
C1581      C1582   1.404       .  A
C1582      H1586   1.083       .  S
C1583      C1588   1.404       .  A
C1583      C1592   1.404       .  A
C1588      C1589   1.398       .  A
C1588      H1593   1.083       .  S
C1589      C1590   1.407       .  A
C1589      H1594   1.083       .  S
C1590      C1591   1.405       .  A
C1591      C1592   1.395       .  A
C1591      H1595   1.083       .  S
C1592      H1596   1.083       .  S
C1597      C1598   1.403       .  A
C1597      C1602   1.395       .  A
C1597      H1607   1.083       .  S
C1598      C1603   1.481       .  S
C1598      C1599   1.405       .  A
C1599      C1600   1.401       .  A
C1599      H1604   1.083       .  S
C1600      C1601   1.405       .  A
C1600      H1605   1.083       .  S
C1601      C1602   1.406       .  A
C1602      H1606   1.083       .  S
C1603      C1608   1.402       .  A
C1603      C1612   1.406       .  A
C1608      C1609   1.394       .  A
C1608      H1613   1.083       .  S
C1609      C1610   1.406       .  A
C1609      H1614   1.083       .  S
C1610      C1611   1.406       .  A
C1611      C1612   1.402       .  A
C1611      H1615   1.083       .  S
C1612      H1616   1.083       .  S
C1617      C1618   1.407       .  A
C1617      C1622   1.400       .  A
C1617      H1627   1.083       .  S
C1618      C1623   1.485       .  S
C1618      C1619   1.406       .  A
C1619      C1620   1.393       .  A
C1619      H1624   1.083       .  S
C1620      C1621   1.403       .  A
C1620      H1625   1.083       .  S
C1621      C1622   1.405       .  A
C1622      H1626   1.083       .  S
C1623      C1628   1.407       .  A
C1623      C1632   1.406       .  A
C1628      C1629   1.401       .  A
C1628      H1633   1.083       .  S
C1629      C1630   1.406       .  A
C1629      H1634   1.083       .  S
C1630      C1631   1.403       .  A
C1631      C1632   1.393       .  A
C1631      H1635   1.083       .  S
C1632      H1636   1.083       .  S
C1637      C1638   1.411       .  A
C1637      C1642   1.403       .  A
C1637      H1647   1.081       .  S
C1638      C1643   1.496       .  S
C1638      C1639   1.406       .  A
C1639      C1640   1.397       .  A
C1639      H1644   1.083       .  S
C1640      C1641   1.407       .  A
C1640      H1645   1.083       .  S
C1641      C1642   1.403       .  A
C1642      H1646   1.084       .  S
C1643      C1648   1.407       .  A
C1643      C1652   1.410       .  A
C1648      C1649   1.398       .  A
C1648      H1653   1.083       .  S
C1649      C1650   1.406       .  A
C1649      H1654   1.082       .  S
C1650      C1651   1.404       .  A
C1651      C1652   1.401       .  A
C1651      H1655   1.084       .  S
C1652      H1656   1.081       .  S
C1657      C1658   1.405       .  A
C1657      C1662   1.399       .  A
C1657      H1667   1.083       .  S
C1658      C1663   1.488       .  S
C1658      C1659   1.407       .  A
C1659      C1660   1.401       .  A
C1659      H1664   1.083       .  S
C1660      C1661   1.406       .  A
C1660      H1665   1.083       .  S
C1661      C1662   1.405       .  A
C1662      H1666   1.083       .  S
C1663      C1668   1.406       .  A
C1663      C1672   1.406       .  A
C1668      C1669   1.400       .  A
C1668      H1673   1.083       .  S
C1669      C1670   1.406       .  A
C1669      H1674   1.083       .  S
C1670      C1671   1.406       .  A
C1671      C1672   1.400       .  A
C1671      H1675   1.083       .  S
C1672      H1676   1.083       .  S
C1677      C1678   1.405       .  A
C1677      C1682   1.400       .  A
C1677      H1687   1.083       .  S
C1678      C1683   1.479       .  S
C1678      C1679   1.403       .  A
C1679      C1680   1.395       .  A
C1679      H1684   1.083       .  S
C1680      C1681   1.405       .  A
C1680      H1685   1.083       .  S
C1681      C1682   1.405       .  A
C1682      H1686   1.083       .  S
C1683      C1688   1.406       .  A
C1683      C1692   1.402       .  A
C1688      C1689   1.401       .  A
C1688      H1693   1.083       .  S
C1689      C1690   1.405       .  A
C1689      H1694   1.083       .  S
C1690      C1691   1.406       .  A
C1691      C1692   1.393       .  A
C1691      H1695   1.083       .  S
C1692      H1696   1.083       .  S
C1697      C1698   1.406       .  A
C1697      C1702   1.400   1_554  A
C1697      H1707   1.083       .  S
C1698      C1703   1.482       .  S
C1698      C1699   1.403       .  A
C1699      C1700   1.394   1_554  A
C1699      H1704   1.083       .  S
C1700      C1701   1.406       .  A
C1700      H1705   1.083       .  S
C1701      C1702   1.404       .  A
C1702      H1706   1.083       .  S
C1703      C1708   1.405       .  A
C1703      C1712   1.404       .  A
C1708      C1709   1.399       .  A
C1708      H1713   1.083       .  S
C1709      C1710   1.406       .  A
C1709      H1714   1.083       .  S
C1710      C1711   1.405       .  A
C1711      C1712   1.395       .  A
C1711      H1715   1.083       .  S
C1712      H1716   1.083       .  S
C1717      C1718   1.409       .  A
C1717      C1722   1.400       .  A
C1717      H1727   1.082       .  S
C1718      C1723   1.493       .  S
C1718      C1719   1.406       .  A
C1719      C1720   1.398       .  A
C1719      H1724   1.083       .  S
C1720      C1721   1.406       .  A
C1720      H1725   1.083       .  S
C1721      C1722   1.404       .  A
C1722      H1726   1.083       .  S
C1723      C1728   1.405       .  A
C1723      C1732   1.411       .  A
C1728      C1729   1.396       .  A
C1728      H1733   1.083       .  S
C1729      C1730   1.407       .  A
C1729      H1734   1.083       .  S
C1730      C1731   1.403       .  A
C1731      C1732   1.401       .  A
C1731      H1735   1.083       .  S
C1732      H1736   1.082       .  S
C1737      C1738   1.408       .  A
C1737      C1742   1.399       .  A
C1737      H1747   1.082       .  S
C1738      C1743   1.492       .  S
C1738      C1739   1.408       .  A
C1739      C1740   1.398       .  A
C1739      H1744   1.082       .  S
C1740      C1741   1.405       .  A
C1740      H1745   1.083       .  S
C1741      C1742   1.404       .  A
C1742      H1746   1.083       .  S
C1743      C1748   1.408       .  A
C1743      C1752   1.407       .  A
C1748      C1749   1.400       .  A
C1748      H1753   1.082       .  S
C1749      C1750   1.405       .  A
C1749      H1754   1.083       .  S
C1750      C1751   1.406       .  A
C1751      C1752   1.397       .  A
C1751      H1755   1.083       .  S
C1752      H1756   1.082       .  S
C1757      C1758   1.409       .  A
C1757      C1762   1.399       .  A
C1757      H1767   1.082       .  S
C1758      C1763   1.490   1_565  S
C1758      C1759   1.406       .  A
C1759      C1760   1.397       .  A
C1759      H1764   1.083       .  S
C1760      C1761   1.406       .  A
C1760      H1765   1.083       .  S
C1761      C1762   1.404       .  A
C1762      H1766   1.084       .  S
C1763      C1768   1.404       .  A
C1763      C1772   1.409       .  A
C1768      C1769   1.395       .  A
C1768      H1773   1.083       .  S
C1769      C1770   1.407       .  A
C1769      H1774   1.082       .  S
C1770      C1771   1.405       .  A
C1771      C1772   1.401       .  A
C1771      H1775   1.084       .  S
C1772      H1776   1.082       .  S
C1777      C1778   1.407       .  A
C1777      C1782   1.400       .  A
C1777      H1787   1.083       .  S
C1778      C1783   1.487       .  S
C1778      C1779   1.406       .  A
C1779      C1780   1.395       .  A
C1779      H1784   1.083       .  S
C1780      C1781   1.405       .  A
C1780      H1785   1.083       .  S
C1781      C1782   1.406       .  A
C1782      H1786   1.083       .  S
C1783      C1788   1.407       .  A
C1783      C1792   1.406       .  A
C1788      C1789   1.396       .  A
C1788      H1793   1.083       .  S
C1789      C1790   1.403       .  A
C1789      H1794   1.083       .  S
C1790      C1791   1.406       .  A
C1791      C1792   1.399       .  A
C1791      H1795   1.083       .  S
C1792      H1796   1.083       .  S
C1797      C1798   1.405       .  A
C1797      C1802   1.394       .  A
C1797      H1807   1.082       .  S
C1798      C1803   1.494       .  S
C1798      C1799   1.412       .  A
C1799      C1800   1.402       .  A
C1799      H1804   1.082       .  S
C1800      C1801   1.402       .  A
C1800      H1805   1.083       .  S
C1801      C1802   1.406       .  A
C1802      H1806   1.083       .  S
C1803      C1808   1.412       .  A
C1803      C1812   1.406       .  A
C1808      C1809   1.400   1_556  A
C1808      H1813   1.082       .  S
C1809      C1810   1.400       .  A
C1809      H1814   1.083       .  S
C1810      C1811   1.404       .  A
C1811      C1812   1.396   1_554  A
C1811      H1815   1.084       .  S
C1812      H1816   1.082       .  S
C1817      C1818   1.404       .  A
C1817      C1822   1.393       .  A
C1817      H1827   1.083       .  S
C1818      C1823   1.484       .  S
C1818      C1819   1.407       .  A
C1819      C1820   1.401       .  A
C1819      H1824   1.083       .  S
C1820      C1821   1.407       .  A
C1820      H1825   1.083       .  S
C1821      C1822   1.405       .  A
C1822      H1826   1.083       .  S
C1823      C1828   1.405       .  A
C1823      C1832   1.406       .  A
C1828      C1829   1.393       .  A
C1828      H1833   1.083       .  S
C1829      C1830   1.405       .  A
C1829      H1834   1.083       .  S
C1830      C1831   1.407       .  A
C1831      C1832   1.400       .  A
C1831      H1835   1.083       .  S
C1832      H1836   1.083       .  S
C1837      C1838   1.402       .  A
C1837      C1842   1.394       .  A
C1837      H1847   1.083       .  S
C1838      C1843   1.484   1_565  S
C1838      C1839   1.406       .  A
C1839      C1840   1.404       .  A
C1839      H1844   1.083       .  S
C1840      C1841   1.407       .  A
C1840      H1845   1.083       .  S
C1841      C1842   1.408       .  A
C1842      H1846   1.083       .  S
C1843      C1848   1.403       .  A
C1843      C1852   1.406       .  A
C1848      C1849   1.396       .  A
C1848      H1853   1.083       .  S
C1849      C1850   1.405       .  A
C1849      H1854   1.083       .  S
C1850      C1851   1.407       .  A
C1851      C1852   1.404       .  A
C1851      H1855   1.083       .  S
C1852      H1856   1.083       .  S
C1857      C1858   1.404       .  A
C1857      C1862   1.396       .  A
C1857      H1867   1.083       .  S
C1858      C1863   1.480       .  S
C1858      C1859   1.405       .  A
C1859      C1860   1.396       .  A
C1859      H1864   1.083       .  S
C1860      C1861   1.404       .  A
C1860      H1865   1.083       .  S
C1861      C1862   1.406       .  A
C1862      H1866   1.083       .  S
C1863      C1868   1.406       .  A
C1863      C1872   1.403       .  A
C1868      C1869   1.399       .  A
C1868      H1873   1.083       .  S
C1869      C1870   1.405       .  A
C1869      H1874   1.083       .  S
C1870      C1871   1.405       .  A
C1871      C1872   1.395       .  A
C1871      H1875   1.083       .  S
C1872      H1876   1.083       .  S
C1877      C1878   1.404       .  A
C1877      C1882   1.393       .  A
C1877      H1887   1.083       .  S
C1878      C1883   1.491   1_565  S
C1878      C1879   1.412       .  A
C1879      C1880   1.403       .  A
C1879      H1884   1.082       .  S
C1880      C1881   1.403       .  A
C1880      H1885   1.083       .  S
C1881      C1882   1.406       .  A
C1882      H1886   1.083       .  S
C1883      C1888   1.410       .  A
C1883      C1892   1.405       .  A
C1888      C1889   1.400       .  A
C1888      H1893   1.082       .  S
C1889      C1890   1.403       .  A
C1889      H1894   1.083       .  S
C1890      C1891   1.407       .  A
C1891      C1892   1.396       .  A
C1891      H1895   1.083       .  S
C1892      H1896   1.083       .  S
C1897      C1898   1.406       .  A
C1897      C1902   1.398       .  A
C1897      H1907   1.083       .  S
C1898      C1903   1.494       .  S
C1898      C1899   1.410       .  A
C1899      C1900   1.402       .  A
C1899      H1904   1.082       .  S
C1900      C1901   1.404       .  A
C1900      H1905   1.084       .  S
C1901      C1902   1.406       .  A
C1902      H1906   1.083       .  S
C1903      C1908   1.411       .  A
C1903      C1912   1.404       .  A
C1908      C1909   1.403       .  A
C1908      H1913   1.082       .  S
C1909      C1910   1.404       .  A
C1909      H1914   1.083       .  S
C1910      C1911   1.409       .  A
C1911      C1912   1.397       .  A
C1911      H1915   1.083       .  S
C1912      H1916   1.083       .  S
C1917      C1918   1.406       .  A
C1917      C1922   1.394       .  A
C1917      H1927   1.082       .  S
C1918      C1923   1.492       .  S
C1918      C1919   1.409       .  A
C1919      C1920   1.402       .  A
C1919      H1924   1.082       .  S
C1920      C1921   1.406       .  A
C1920      H1925   1.083       .  S
C1921      C1922   1.404       .  A
C1922      H1926   1.083       .  S
C1923      C1928   1.408       .  A
C1923      C1932   1.407       .  A
C1928      C1929   1.396       .  A
C1928      H1933   1.082       .  S
C1929      C1930   1.403       .  A
C1929      H1934   1.083       .  S
C1930      C1931   1.407       .  A
C1931      C1932   1.401       .  A
C1931      H1935   1.083       .  S
C1932      H1936   1.082       .  S
C1937      C1938   1.405       .  A
C1937      C1942   1.394       .  A
C1937      H1947   1.083       .  S
C1938      C1943   1.487       .  S
C1938      C1939   1.410       .  A
C1939      C1940   1.399       .  A
C1939      H1944   1.082       .  S
C1940      C1941   1.400       .  A
C1940      H1945   1.083       .  S
C1941      C1942   1.405       .  A
C1942      H1946   1.084       .  S
C1943      C1948   1.410       .  A
C1943      C1952   1.404       .  A
C1948      C1949   1.400       .  A
C1948      H1953   1.082       .  S
C1949      C1950   1.403       .  A
C1949      H1954   1.083       .  S
C1950      C1951   1.405       .  A
C1951      C1952   1.393       .  A
C1951      H1955   1.083       .  S
C1952      H1956   1.082       .  S
C1957      C1958   1.405       .  A
C1957      C1962   1.398       .  A
C1957      H1967   1.083       .  S
C1958      C1963   1.482       .  S
C1958      C1959   1.404       .  A
C1959      C1960   1.396       .  A
C1959      H1964   1.083       .  S
C1960      C1961   1.407       .  A
C1960      H1965   1.083       .  S
C1961      C1962   1.405       .  A
C1962      H1966   1.083       .  S
C1963      C1968   1.405       .  A
C1963      C1972   1.405       .  A
C1968      C1969   1.397       .  A
C1968      H1973   1.083       .  S
C1969      C1970   1.405       .  A
C1969      H1974   1.083       .  S
C1970      C1971   1.406       .  A
C1971      C1972   1.397       .  A
C1971      H1975   1.083       .  S
C1972      H1976   1.083       .  S
C1977      C1978   1.406       .  A
C1977      C1982   1.398       .  A
C1977      H1987   1.083       .  S
C1978      C1983   1.480   1_546  S
C1978      C1979   1.401   1_556  A
C1979      C1980   1.396   1_554  A
C1979      H1984   1.083       .  S
C1980      C1981   1.408       .  A
C1980      H1985   1.083   1_556  S
C1981      C1982   1.405       .  A
C1982      H1986   1.083       .  S
C1983      C1988   1.400   1_554  A
C1983      C1992   1.409       .  A
C1988      C1989   1.391       .  A
C1988      H1993   1.083       .  S
C1989      C1990   1.406   1_556  A
C1989      H1994   1.084       .  S
C1990      C1991   1.403       .  A
C1991      C1992   1.403       .  A
C1991      H1995   1.083       .  S
C1992      H1996   1.083       .  S
C1997      C1998   1.407       .  A
C1997      C2002   1.400       .  A
C1997      H2007   1.083       .  S
C1998      C2003   1.495       .  S
C1998      C1999   1.409       .  A
C1999      C2000   1.399       .  A
C1999      H2004   1.081       .  S
C2000      C2001   1.404       .  A
C2000      H2005   1.083       .  S
C2001      C2002   1.407       .  A
C2002      H2006   1.082       .  S
C2003      C2008   1.411       .  A
C2003      C2012   1.406       .  A
C2008      C2009   1.403       .  A
C2008      H2013   1.082       .  S
C2009      C2010   1.404       .  A
C2009      H2014   1.084       .  S
C2010      C2011   1.406       .  A
C2011      C2012   1.395       .  A
C2011      H2015   1.082       .  S
C2012      H2016   1.083       .  S
C2017      C2018   1.405       .  A
C2017      C2022   1.394       .  A
C2017      H2027   1.083       .  S
C2018      C2023   1.486       .  S
C2018      C2019   1.407       .  A
C2019      C2020   1.400       .  A
C2019      H2024   1.083       .  S
C2020      C2021   1.405       .  A
C2020      H2025   1.083       .  S
C2021      C2022   1.404       .  A
C2022      H2026   1.083       .  S
C2023      C2028   1.406       .  A
C2023      C2032   1.406       .  A
C2028      C2029   1.394       .  A
C2028      H2033   1.083       .  S
C2029      C2030   1.404       .  A
C2029      H2034   1.083       .  S
C2030      C2031   1.406       .  A
C2031      C2032   1.399       .  A
C2031      H2035   1.083       .  S
C2032      H2036   1.083       .  S
C2037      C2038   1.406       .  A
C2037      C2042   1.402       .  A
C2037      H2047   1.083       .  S
C2038      C2043   1.479       .  S
C2038      C2039   1.402       .  A
C2039      C2040   1.391       .  A
C2039      H2044   1.083       .  S
C2040      C2041   1.405       .  A
C2040      H2045   1.083       .  S
C2041      C2042   1.406       .  A
C2042      H2046   1.083       .  S
C2043      C2048   1.405       .  A
C2043      C2052   1.404       .  A
C2048      C2049   1.400       .  A
C2048      H2053   1.083       .  S
C2049      C2050   1.405       .  A
C2049      H2054   1.083       .  S
C2050      C2051   1.404       .  A
C2051      C2052   1.394       .  A
C2051      H2055   1.083       .  S
C2052      H2056   1.083       .  S
C2057      C2058   1.404       .  A
C2057      C2062   1.400       .  A
C2057      H2067   1.083       .  S
C2058      C2063   1.484       .  S
C2058      C2059   1.405       .  A
C2059      C2060   1.398       .  A
C2059      H2064   1.083       .  S
C2060      C2061   1.405       .  A
C2060      H2065   1.083       .  S
C2061      C2062   1.407       .  A
C2062      H2066   1.083       .  S
C2063      C2068   1.406       .  A
C2063      C2072   1.403       .  A
C2068      C2069   1.403       .  A
C2068      H2073   1.083       .  S
C2069      C2070   1.406       .  A
C2069      H2074   1.083       .  S
C2070      C2071   1.407       .  A
C2071      C2072   1.396       .  A
C2071      H2075   1.083       .  S
C2072      H2076   1.083       .  S
C2077      C2078   1.410       .  A
C2077      C2082   1.404       .  A
C2077      H2087   1.082       .  S
C2078      C2083   1.501       .  S
C2078      C2079   1.409       .  A
C2079      C2080   1.398       .  A
C2079      H2084   1.082       .  S
C2080      C2081   1.404       .  A
C2080      H2085   1.083       .  S
C2081      C2082   1.406       .  A
C2082      H2086   1.083       .  S
C2083      C2088   1.410       .  A
C2083      C2092   1.409       .  A
C2088      C2089   1.404       .  A
C2088      H2093   1.082       .  S
C2089      C2090   1.407       .  A
C2089      H2094   1.083       .  S
C2090      C2091   1.405       .  A
C2091      C2092   1.398       .  A
C2091      H2095   1.083       .  S
C2092      H2096   1.082       .  S
C2097      C2098   1.404       .  A
C2097      C2102   1.398       .  A
C2097      H2107   1.083       .  S
C2098      C2103   1.480       .  S
C2098      C2099   1.404       .  A
C2099      C2100   1.393       .  A
C2099      H2104   1.083       .  S
C2100      C2101   1.405       .  A
C2100      H2105   1.083       .  S
C2101      C2102   1.407       .  A
C2102      H2106   1.083       .  S
C2103      C2108   1.403       .  A
C2103      C2112   1.405       .  A
C2108      C2109   1.392       .  A
C2108      H2113   1.083       .  S
C2109      C2110   1.405       .  A
C2109      H2114   1.083       .  S
C2110      C2111   1.406       .  A
C2111      C2112   1.400       .  A
C2111      H2115   1.083       .  S
C2112      H2116   1.083       .  S
C2117      C2118   1.407       .  A
C2117      C2122   1.400       .  A
C2117      H2127   1.083       .  S
C2118      C2123   1.479       .  S
C2118      C2119   1.400       .  A
C2119      C2120   1.391       .  A
C2119      H2124   1.083       .  S
C2120      C2121   1.408       .  A
C2120      H2125   1.083       .  S
C2121      C2122   1.404       .  A
C2122      H2126   1.083       .  S
C2123      C2128   1.401       .  A
C2123      C2132   1.406       .  A
C2128      C2129   1.394   1_554  A
C2128      H2133   1.083       .  S
C2129      C2130   1.408       .  A
C2129      H2134   1.083       .  S
C2130      C2131   1.404       .  A
C2131      C2132   1.398   1_556  A
C2131      H2135   1.083       .  S
C2132      H2136   1.083       .  S
C2137      C2138   1.404       .  A
C2137      C2142   1.400       .  A
C2137      H2147   1.083       .  S
C2138      C2143   1.481   1_655  S
C2138      C2139   1.404       .  A
C2139      C2140   1.398       .  A
C2139      H2144   1.083       .  S
C2140      C2141   1.406       .  A
C2140      H2145   1.083       .  S
C2141      C2142   1.406       .  A
C2142      H2146   1.083       .  S
C2143      C2148   1.404       .  A
C2143      C2152   1.403       .  A
C2148      C2149   1.401       .  A
C2148      H2153   1.083       .  S
C2149      C2150   1.407       .  A
C2149      H2154   1.083       .  S
C2150      C2151   1.407       .  A
C2151      C2152   1.398       .  A
C2151      H2155   1.083       .  S
C2152      H2156   1.083       .  S
C2157      C2158   1.404       .  A
C2157      C2162   1.395       .  A
C2157      H2167   1.083       .  S
C2158      C2163   1.480       .  S
C2158      C2159   1.404       .  A
C2159      C2160   1.399       .  A
C2159      H2164   1.083   1_556  S
C2160      C2161   1.407       .  A
C2160      H2165   1.083       .  S
C2161      C2162   1.405       .  A
C2162      H2166   1.083       .  S
C2163      C2168   1.403       .  A
C2163      C2172   1.405       .  A
C2168      C2169   1.394       .  A
C2168      H2173   1.083       .  S
C2169      C2170   1.405       .  A
C2169      H2174   1.083       .  S
C2170      C2171   1.406       .  A
C2171      C2172   1.400       .  A
C2171      H2175   1.083       .  S
C2172      H2176   1.083       .  S
C2177      C2178   1.404       .  A
C2177      C2182   1.395       .  A
C2177      H2187   1.083       .  S
C2178      C2183   1.480       .  S
C2178      C2179   1.405       .  A
C2179      C2180   1.399       .  A
C2179      H2184   1.083       .  S
C2180      C2181   1.405       .  A
C2180      H2185   1.083       .  S
C2181      C2182   1.404       .  A
C2182      H2186   1.084       .  S
C2183      C2188   1.402       .  A
C2183      C2192   1.406       .  A
C2188      C2189   1.393       .  A
C2188      H2193   1.084       .  S
C2189      C2190   1.406       .  A
C2189      H2194   1.083       .  S
C2190      C2191   1.405       .  A
C2191      C2192   1.400       .  A
C2191      H2195   1.083       .  S
C2192      H2196   1.083       .  S
C2197      C2198   1.407       .  A
C2197      C2202   1.395       .  A
C2197      H2207   1.082       .  S
C2198      C2203   1.490   1_655  S
C2198      C2199   1.408       .  A
C2199      C2200   1.399       .  A
C2199      H2204   1.082       .  S
C2200      C2201   1.404       .  A
C2200      H2205   1.083       .  S
C2201      C2202   1.404       .  A
C2202      H2206   1.083       .  S
C2203      C2208   1.408       .  A
C2203      C2212   1.408       .  A
C2208      C2209   1.395       .  A
C2208      H2213   1.082       .  S
C2209      C2210   1.404       .  A
C2209      H2214   1.083       .  S
C2210      C2211   1.404       .  A
C2211      C2212   1.398       .  A
C2211      H2215   1.083       .  S
C2212      H2216   1.082       .  S
C2217      C2218   1.407       .  A
C2217      C2222   1.399       .  A
C2217      H2227   1.082       .  S
C2218      C2223   1.491       .  S
C2218      C2219   1.408       .  A
C2219      C2220   1.397       .  A
C2219      H2224   1.082       .  S
C2220      C2221   1.404       .  A
C2220      H2225   1.083       .  S
C2221      C2222   1.405       .  A
C2222      H2226   1.083       .  S
C2223      C2228   1.409       .  A
C2223      C2232   1.406       .  A
C2228      C2229   1.401       .  A
C2228      H2233   1.082       .  S
C2229      C2230   1.405       .  A
C2229      H2234   1.083       .  S
C2230      C2231   1.405       .  A
C2231      C2232   1.396       .  A
C2231      H2235   1.083       .  S
C2232      H2236   1.082       .  S
C2237      C2238   1.407       .  A
C2237      C2242   1.399       .  A
C2237      H2247   1.083       .  S
C2238      C2243   1.486       .  S
C2238      C2239   1.404       .  A
C2239      C2240   1.396       .  A
C2239      H2244   1.083       .  S
C2240      C2241   1.407       .  A
C2240      H2245   1.083       .  S
C2241      C2242   1.405       .  A
C2242      H2246   1.083       .  S
C2243      C2248   1.404       .  A
C2243      C2252   1.408       .  A
C2248      C2249   1.395       .  A
C2248      H2253   1.083       .  S
C2249      C2250   1.407       .  A
C2249      H2254   1.083       .  S
C2250      C2251   1.404       .  A
C2251      C2252   1.399       .  A
C2251      H2255   1.083       .  S
C2252      H2256   1.083       .  S
C2257      C2258   1.408       .  A
C2257      C2262   1.396       .  A
C2257      H2267   1.082       .  S
C2258      C2263   1.490       .  S
C2258      C2259   1.407       .  A
C2259      C2260   1.398       .  A
C2259      H2264   1.082       .  S
C2260      C2261   1.404       .  A
C2260      H2265   1.083       .  S
C2261      C2262   1.402       .  A
C2262      H2266   1.083       .  S
C2263      C2268   1.408       .  A
C2263      C2272   1.408       .  A
C2268      C2269   1.395       .  A
C2268      H2273   1.082       .  S
C2269      C2270   1.402       .  A
C2269      H2274   1.083       .  S
C2270      C2271   1.403       .  A
C2271      C2272   1.398       .  A
C2271      H2275   1.083       .  S
C2272      H2276   1.082       .  S
C2277      C2278   1.401       .  A
C2277      C2282   1.396       .  A
C2277      H2287   1.084       .  S
C2278      C2283   1.479       .  S
C2278      C2279   1.406       .  A
C2279      C2280   1.400       .  A
C2279      H2284   1.083       .  S
C2280      C2281   1.405       .  A
C2280      H2285   1.083       .  S
C2281      C2282   1.409       .  A
C2282      H2286   1.082       .  S
C2283      C2288   1.408       .  A
C2283      C2292   1.401       .  A
C2288      C2289   1.401       .  A
C2288      H2293   1.083       .  S
C2289      C2290   1.403       .  A
C2289      H2294   1.083       .  S
C2290      C2291   1.406       .  A
C2291      C2292   1.395       .  A
C2291      H2295   1.083       .  S
C2292      H2296   1.084       .  S
C2297      C2298   1.404       .  A
C2297      C2302   1.395       .  A
C2297      H2307   1.083       .  S
C2298      C2303   1.482       .  S
C2298      C2299   1.405       .  A
C2299      C2300   1.401       .  A
C2299      H2304   1.083       .  S
C2300      C2301   1.406       .  A
C2300      H2305   1.083       .  S
C2301      C2302   1.405       .  A
C2302      H2306   1.083       .  S
C2303      C2308   1.403       .  A
C2303      C2312   1.405       .  A
C2308      C2309   1.395       .  A
C2308      H2313   1.083       .  S
C2309      C2310   1.405       .  A
C2309      H2314   1.083       .  S
C2310      C2311   1.407       .  A
C2311      C2312   1.402       .  A
C2311      H2315   1.083       .  S
C2312      H2316   1.083       .  S
C2317      C2318   1.407       .  A
C2317      C2322   1.399       .  A
C2317      H2327   1.083       .  S
C2318      C2323   1.493   1_655  S
C2318      C2319   1.408       .  A
C2319      C2320   1.400       .  A
C2319      H2324   1.082       .  S
C2320      C2321   1.405       .  A
C2320      H2325   1.083       .  S
C2321      C2322   1.405       .  A
C2322      H2326   1.083       .  S
C2323      C2328   1.408       .  A
C2323      C2332   1.406       .  A
C2328      C2329   1.401       .  A
C2328      H2333   1.082       .  S
C2329      C2330   1.406       .  A
C2329      H2334   1.083       .  S
C2330      C2331   1.407       .  A
C2331      C2332   1.398       .  A
C2331      H2335   1.083       .  S
C2332      H2336   1.083       .  S
C2337      C2338   1.404       .  A
C2337      C2342   1.396       .  A
C2337      H2347   1.083       .  S
C2338      C2343   1.486   1_565  S
C2338      C2339   1.407       .  A
C2339      C2340   1.399       .  A
C2339      H2344   1.083       .  S
C2340      C2341   1.405       .  A
C2340      H2345   1.083       .  S
C2341      C2342   1.406       .  A
C2342      H2346   1.083       .  S
C2343      C2348   1.408       .  A
C2343      C2352   1.403       .  A
C2348      C2349   1.400       .  A
C2348      H2353   1.083   1_545  S
C2349      C2350   1.404       .  A
C2349      H2354   1.083       .  S
C2350      C2351   1.407       .  A
C2351      C2352   1.394       .  A
C2351      H2355   1.083       .  S
C2352      H2356   1.083       .  S
C2357      C2358   1.405       .  A
C2357      C2362   1.398       .  A
C2357      H2367   1.083       .  S
C2358      C2363   1.483       .  S
C2358      C2359   1.405       .  A
C2359      C2360   1.399       .  A
C2359      H2364   1.083       .  S
C2360      C2361   1.405       .  A
C2360      H2365   1.083       .  S
C2361      C2362   1.405       .  A
C2362      H2366   1.083       .  S
C2363      C2368   1.405       .  A
C2363      C2372   1.404       .  A
C2368      C2369   1.399       .  A
C2368      H2373   1.083       .  S
C2369      C2370   1.406       .  A
C2369      H2374   1.083       .  S
C2370      C2371   1.406       .  A
C2371      C2372   1.399       .  A
C2371      H2375   1.083       .  S
C2372      H2376   1.083       .  S
C2377      C2378   1.406       .  A
C2377      C2382   1.395       .  A
C2377      H2387   1.083       .  S
C2378      C2383   1.482   1_655  S
C2378      C2379   1.406       .  A
C2379      C2380   1.394       .  A
C2379      H2384   1.083       .  S
C2380      C2381   1.404       .  A
C2380      H2385   1.083       .  S
C2381      C2382   1.404       .  A
C2382      H2386   1.083       .  S
C2383      C2388   1.405       .  A
C2383      C2392   1.406       .  A
C2388      C2389   1.393       .  A
C2388      H2393   1.083       .  S
C2389      C2390   1.404       .  A
C2389      H2394   1.083       .  S
C2390      C2391   1.404       .  A
C2391      C2392   1.396       .  A
C2391      H2395   1.083       .  S
C2392      H2396   1.083       .  S
C2397      C2398   1.402       .  A
C2397      C2402   1.394       .  A
C2397      H2407   1.083       .  S
C2398      C2403   1.483       .  S
C2398      C2399   1.408       .  A
C2399      C2400   1.399       .  A
C2399      H2404   1.083       .  S
C2400      C2401   1.403       .  A
C2400      H2405   1.083       .  S
C2401      C2402   1.408       .  A
C2402      H2406   1.083       .  S
C2403      C2408   1.408       .  A
C2403      C2412   1.403       .  A
C2408      C2409   1.400       .  A
C2408      H2413   1.083       .  S
C2409      C2410   1.405       .  A
C2409      H2414   1.083       .  S
C2410      C2411   1.406       .  A
C2411      C2412   1.393       .  A
C2411      H2415   1.083       .  S
C2412      H2416   1.083       .  S
C2417      C2418   1.405       .  A
C2417      C2422   1.393       .  A
C2417      H2427   1.083       .  S
C2418      C2423   1.487       .  S
C2418      C2419   1.408       .  A
C2419      C2420   1.402       .  A
C2419      H2424   1.083       .  S
C2420      C2421   1.406       .  A
C2420      H2425   1.083       .  S
C2421      C2422   1.405       .  A
C2422      H2426   1.083       .  S
C2423      C2428   1.407       .  A
C2423      C2432   1.405       .  A
C2428      C2429   1.401       .  A
C2428      H2433   1.083       .  S
C2429      C2430   1.406       .  A
C2429      H2434   1.083       .  S
C2430      C2431   1.405       .  A
C2431      C2432   1.393       .  A
C2431      H2435   1.083       .  S
C2432      H2436   1.083       .  S
C2437      C2438   1.411       .  A
C2437      C2442   1.402       .  A
C2437      H2447   1.082   1_565  S
C2438      C2443   1.489   1_564  S
C2438      C2439   1.403   1_554  A
C2439      C2440   1.393       .  A
C2439      H2444   1.083       .  S
C2440      C2441   1.407   1_556  A
C2440      H2445   1.083       .  S
C2441      C2442   1.403       .  A
C2442      H2446   1.083       .  S
C2443      C2448   1.404       .  A
C2443      C2452   1.409       .  A
C2448      C2449   1.396       .  A
C2448      H2453   1.083   1_556  S
C2449      C2450   1.407       .  A
C2449      H2454   1.083       .  S
C2450      C2451   1.404       .  A
C2451      C2452   1.399       .  A
C2451      H2455   1.083       .  S
C2452      H2456   1.082       .  S
C2457      C2458   1.409       .  A
C2457      C2462   1.401       .  A
C2457      H2467   1.082       .  S
C2458      C2463   1.495       .  S
C2458      C2459   1.408       .  A
C2459      C2460   1.397       .  A
C2459      H2464   1.082       .  S
C2460      C2461   1.405       .  A
C2460      H2465   1.083       .  S
C2461      C2462   1.406       .  A
C2462      H2466   1.083       .  S
C2463      C2468   1.409       .  A
C2463      C2472   1.407       .  A
C2468      C2469   1.402       .  A
C2468      H2473   1.082       .  S
C2469      C2470   1.405       .  A
C2469      H2474   1.083       .  S
C2470      C2471   1.405       .  A
C2471      C2472   1.396       .  A
C2471      H2475   1.083       .  S
C2472      H2476   1.082       .  S
C2477      C2478   1.408       .  A
C2477      C2482   1.396       .  A
C2477      H2487   1.082       .  S
C2478      C2483   1.492       .  S
C2478      C2479   1.407       .  A
C2479      C2480   1.401       .  A
C2479      H2484   1.082       .  S
C2480      C2481   1.406       .  A
C2480      H2485   1.083       .  S
C2481      C2482   1.404       .  A
C2482      H2486   1.083       .  S
C2483      C2488   1.409       .  A
C2483      C2492   1.406       .  A
C2488      C2489   1.402       .  A
C2488      H2493   1.082       .  S
C2489      C2490   1.406       .  A
C2489      H2494   1.083       .  S
C2490      C2491   1.405       .  A
C2491      C2492   1.394       .  A
C2491      H2495   1.083       .  S
C2492      H2496   1.082       .  S
C2497      C2498   1.405       .  A
C2497      C2502   1.396       .  A
C2497      H2507   1.083       .  S
C2498      C2503   1.491   1_545  S
C2498      C2499   1.410       .  A
C2499      C2500   1.400       .  A
C2499      H2504   1.082       .  S
C2500      C2501   1.404       .  A
C2500      H2505   1.083       .  S
C2501      C2502   1.405       .  A
C2502      H2506   1.083       .  S
C2503      C2508   1.410       .  A
C2503      C2512   1.404       .  A
C2508      C2509   1.401       .  A
C2508      H2513   1.082       .  S
C2509      C2510   1.404       .  A
C2509      H2514   1.083       .  S
C2510      C2511   1.408       .  A
C2511      C2512   1.395       .  A
C2511      H2515   1.083       .  S
C2512      H2516   1.083       .  S
C2517      C2518   1.409       .  A
C2517      C2522   1.397       .  A
C2517      H2527   1.082       .  S
C2518      C2523   1.491       .  S
C2518      C2519   1.407       .  A
C2519      C2520   1.398       .  A
C2519      H2524   1.083       .  S
C2520      C2521   1.406       .  A
C2520      H2525   1.083       .  S
C2521      C2522   1.404       .  A
C2522      H2526   1.083       .  S
C2523      C2528   1.404       .  A
C2523      C2532   1.410       .  A
C2528      C2529   1.393       .  A
C2528      H2533   1.082       .  S
C2529      C2530   1.406       .  A
C2529      H2534   1.083       .  S
C2530      C2531   1.404       .  A
C2531      C2532   1.402       .  A
C2531      H2535   1.083       .  S
C2532      H2536   1.082       .  S
C2537      C2538   1.407       .  A
C2537      C2542   1.398       .  A
C2537      H2547   1.082       .  S
C2538      C2543   1.486       .  S
C2538      C2539   1.406       .  A
C2539      C2540   1.394       .  A
C2539      H2544   1.083       .  S
C2540      C2541   1.405       .  A
C2540      H2545   1.083       .  S
C2541      C2542   1.404       .  A
C2542      H2546   1.083       .  S
C2543      C2548   1.408       .  A
C2543      C2552   1.405       .  A
C2548      C2549   1.400       .  A
C2548      H2553   1.082       .  S
C2549      C2550   1.404       .  A
C2549      H2554   1.083       .  S
C2550      C2551   1.404       .  A
C2551      C2552   1.392       .  A
C2551      H2555   1.083       .  S
C2552      H2556   1.082       .  S
C2557      C2558   1.409       .  A
C2557      C2562   1.400       .  A
C2557      H2567   1.082       .  S
C2558      C2563   1.497       .  S
C2558      C2559   1.409       .  A
C2559      C2560   1.402       .  A
C2559      H2564   1.082       .  S
C2560      C2561   1.406       .  A
C2560      H2565   1.083       .  S
C2561      C2562   1.405       .  A
C2562      H2566   1.083       .  S
C2563      C2568   1.408       .  A
C2563      C2572   1.409       .  A
C2568      C2569   1.399       .  A
C2568      H2573   1.082       .  S
C2569      C2570   1.406       .  A
C2569      H2574   1.083       .  S
C2570      C2571   1.407       .  A
C2571      C2572   1.403       .  A
C2571      H2575   1.083       .  S
C2572      H2576   1.082       .  S
C2577      C2578   1.407       .  A
C2577      C2582   1.399   1_556  A
C2577      H2587   1.083       .  S
C2578      C2583   1.481       .  S
C2578      C2579   1.402       .  A
C2579      C2580   1.392   1_556  A
C2579      H2584   1.083       .  S
C2580      C2581   1.407       .  A
C2580      H2585   1.083       .  S
C2581      C2582   1.404       .  A
C2582      H2586   1.083       .  S
C2583      C2588   1.402       .  A
C2583      C2592   1.407       .  A
C2588      C2589   1.393       .  A
C2588      H2593   1.083       .  S
C2589      C2590   1.408       .  A
C2589      H2594   1.083       .  S
C2590      C2591   1.403       .  A
C2591      C2592   1.398       .  A
C2591      H2595   1.083       .  S
C2592      H2596   1.083       .  S
C2597      C2598   1.406       .  A
C2597      C2602   1.400       .  A
C2597      H2607   1.083       .  S
C2598      C2603   1.483       .  S
C2598      C2599   1.405       .  A
C2599      C2600   1.392       .  A
C2599      H2604   1.083       .  S
C2600      C2601   1.404       .  A
C2600      H2605   1.083       .  S
C2601      C2602   1.407       .  A
C2602      H2606   1.083       .  S
C2603      C2608   1.404       .  A
C2603      C2612   1.407       .  A
C2608      C2609   1.391       .  A
C2608      H2613   1.083       .  S
C2609      C2610   1.405       .  A
C2609      H2614   1.083       .  S
C2610      C2611   1.406       .  A
C2611      C2612   1.401       .  A
C2611      H2615   1.083       .  S
C2612      H2616   1.083       .  S
C2617      C2618   1.404       .  A
C2617      C2622   1.396       .  A
C2617      H2627   1.082       .  S
C2618      C2623   1.483   1_565  S
C2618      C2619   1.406       .  A
C2619      C2620   1.395       .  A
C2619      H2624   1.083       .  S
C2620      C2621   1.404       .  A
C2620      H2625   1.082       .  S
C2621      C2622   1.406       .  A
C2622      H2626   1.084       .  S
C2623      C2628   1.408       .  A
C2623      C2632   1.403       .  A
C2628      C2629   1.400       .  A
C2628      H2633   1.083       .  S
C2629      C2630   1.404       .  A
C2629      H2634   1.082       .  S
C2630      C2631   1.405       .  A
C2631      C2632   1.392       .  A
C2631      H2635   1.084       .  S
C2632      H2636   1.082       .  S
C2637      C2638   1.407       .  A
C2637      C2642   1.398       .  A
C2637      H2647   1.083       .  S
C2638      C2643   1.491       .  S
C2638      C2639   1.408       .  A
C2639      C2640   1.398       .  A
C2639      H2644   1.082       .  S
C2640      C2641   1.404       .  A
C2640      H2645   1.083       .  S
C2641      C2642   1.405       .  A
C2642      H2646   1.083       .  S
C2643      C2648   1.410       .  A
C2643      C2652   1.404       .  A
C2648      C2649   1.402       .  A
C2648      H2653   1.082       .  S
C2649      C2650   1.404       .  A
C2649      H2654   1.083       .  S
C2650      C2651   1.407       .  A
C2651      C2652   1.394       .  A
C2651      H2655   1.083       .  S
C2652      H2656   1.083       .  S
