geometry optimzed in LAMMPS
_audit_creation_date              2020-11-30 
_audit_creation_method            'lammps2cif' 
_symmetry_space_group_name_H-M    'P1' 
_symmetry_Int_Tables_number       1 
_symmetry_cell_setting            triclinic 
loop_ 
_symmetry_equiv_pos_as_xyz 
  x,y,z 
_cell_length_a                    58.80731226 
_cell_length_b                    58.814492971687315 
_cell_length_c                    58.80913276872359 
_cell_angle_alpha                 89.59440867275076 
_cell_angle_beta                  89.6744406110742 
_cell_angle_gamma                 89.65483764036712 
loop_ 
_atom_site_label 
_atom_site_type_symbol 
_atom_site_fract_x 
_atom_site_fract_y 
_atom_site_fract_z 
_atom_site_charge 
O1          O  0.09061812  0.12589569  0.34863048    -0.72500
O2          O  0.15889733  0.12548546  0.34972418    -0.73500
O3          O  0.12491225  0.09155861  0.35053178    -0.62100
O4          O  0.12491396  0.16000232  0.34777444    -0.70500
O5          O  0.12187600  0.16096524  0.38542394    -0.70100
O6          O  0.12551154  0.09292547  0.38823755    -0.61400
O7          O  0.15796921  0.12887208  0.38730981    -0.73900
O8          O  0.08978428  0.12563746  0.38638315    -0.72600
Cu9        Cu  0.12484822  0.12568403  0.34782420     1.04600
Cu10       Cu  0.12378483  0.12710620  0.38815324     1.04300
C11         C  0.07945495  0.12573278  0.36734466     0.93700
C12         C  0.16915462  0.12749818  0.36867866     0.92800
C13         C  0.12547362  0.08148296  0.36983966     0.84900
C14         C  0.12305782  0.17119376  0.36624635     0.91200
O15         O  0.15821391  0.87831815  0.39732786    -0.72500
O16         O  0.09001971  0.87556939  0.39517704    -0.73500
O17         O  0.12504374  0.84256827  0.39802813    -0.62100
O18         O  0.12276173  0.91099939  0.39438575    -0.70500
O19         O  0.12436150  0.90921117  0.35671647    -0.70100
O20         O  0.12704337  0.84111966  0.36032902    -0.61400
O21         O  0.09140726  0.87391359  0.35748390    -0.73900
O22         O  0.15951532  0.87600998  0.35965233    -0.72600
Cu23       Cu  0.12395655  0.87690601  0.39757999     1.04600
Cu24       Cu  0.12559893  0.87501565  0.35725328     1.04300
C25         C  0.16956382  0.87762255  0.37874240     0.93700
C26         C  0.07998946  0.87430323  0.37602569     0.92800
C27         C  0.12644641  0.83113994  0.37965875     0.84900
C28         C  0.12335887  0.92086118  0.37495596     0.91200
O29         O  0.83965843  0.12634071  0.38680056    -0.72500
O30         O  0.90793750  0.12650138  0.38716423    -0.73500
O31         O  0.87325388  0.16060698  0.38834217    -0.62100
O32         O  0.87416906  0.09243707  0.38586092    -0.70500
O33         O  0.87256724  0.09360868  0.34818496    -0.70100
O34         O  0.87654114  0.16221511  0.35072128    -0.61400
O35         O  0.90845124  0.12598411  0.34941931    -0.73900
O36         O  0.84018877  0.13060047  0.34924925    -0.72600
Cu37       Cu  0.87374048  0.12640400  0.38833924     1.04600
Cu38       Cu  0.87440791  0.12812299  0.34803288     1.04300
C39         C  0.82920223  0.12907263  0.36800219     0.93700
C40         C  0.91894525  0.12597022  0.36836833     0.92800
C41         C  0.87515713  0.17212359  0.36995273     0.84900
C42         C  0.87335528  0.08221668  0.36679458     0.91200
O43         O  0.87532694  0.91150536  0.38797902    -0.72500
O44         O  0.87355526  0.84322318  0.39246459    -0.73500
O45         O  0.90875792  0.87651729  0.39020751    -0.62100
O46         O  0.84070276  0.87862967  0.39064543    -0.70500
O47         O  0.84050417  0.87388477  0.35321124    -0.70100
O48         O  0.90896887  0.87638779  0.35245802    -0.61400
O49         O  0.87629342  0.84118598  0.35484874    -0.73900
O50         O  0.87331202  0.90944454  0.35037397    -0.72600
Cu51       Cu  0.87464189  0.87752431  0.39163711     1.04600
Cu52       Cu  0.87478007  0.87515474  0.35137862     1.04300
C53         C  0.87406794  0.92123962  0.36852267     0.93700
C54         C  0.87478810  0.83149072  0.37427761     0.92800
C55         C  0.91962172  0.87650736  0.37134172     0.84900
C56         C  0.82988144  0.87626635  0.37208774     0.91200
O57         O  0.14263626  0.37886991  0.33571566    -0.72500
O58         O  0.14165646  0.37384210  0.40388325    -0.73500
O59         O  0.14271684  0.34226221  0.36728183    -0.62100
O60         O  0.14149908  0.41028937  0.37222510    -0.70500
O61         O  0.10381013  0.41015898  0.37037883    -0.70100
O62         O  0.10501094  0.34175652  0.36976333    -0.61400
O63         O  0.10392224  0.37529398  0.40399097    -0.73900
O64         O  0.10500973  0.37602464  0.33546315    -0.72600
Cu65       Cu  0.14343269  0.37633741  0.36978704     1.04600
Cu66       Cu  0.10308725  0.37583486  0.36982503     1.04300
C67         C  0.12397388  0.37756515  0.32482363     0.93700
C68         C  0.12273894  0.37416475  0.41469190     0.92800
C69         C  0.12404051  0.33131558  0.36814783     0.84900
C70         C  0.12252437  0.42096328  0.37206847     0.91200
O71         O  0.14055511  0.33535560  0.61829192    -0.72500
O72         O  0.14304335  0.40358338  0.62012655    -0.73500
O73         O  0.14294136  0.36822483  0.65332388    -0.62100
O74         O  0.14063746  0.37048186  0.58527203    -0.70500
O75         O  0.10289600  0.37057935  0.58661486    -0.70100
O76         O  0.10532973  0.37180454  0.65474376    -0.61400
O77         O  0.10531794  0.40520487  0.62016567    -0.73900
O78         O  0.10295875  0.33677941  0.62181029    -0.72600
Cu79       Cu  0.14310258  0.36935730  0.61919275     1.04600
Cu80       Cu  0.10278044  0.37111554  0.62085011     1.04300
C81         C  0.12142082  0.32532422  0.62005352     0.93700
C82         C  0.12458199  0.41514846  0.62042886     0.92800
C83         C  0.12448505  0.37008197  0.66472259     0.84900
C84         C  0.12146020  0.37064708  0.57520639     0.91200
O85         O  0.14876679  0.62579058  0.41427524    -0.72500
O86         O  0.14505392  0.62531672  0.34626402    -0.73500
O87         O  0.14763117  0.65983705  0.37961869    -0.62100
O88         O  0.14622309  0.59149526  0.38041769    -0.70500
O89         O  0.10847873  0.59258277  0.38090150    -0.70100
O90         O  0.11009591  0.66067211  0.38408500    -0.61400
O91         O  0.10744245  0.62874643  0.34838671    -0.73900
O92         O  0.11104636  0.62520504  0.41623963    -0.72600
Cu93       Cu  0.14826715  0.62557120  0.38008438     1.04600
Cu94       Cu  0.10794739  0.62679568  0.38247428     1.04300
C95         C  0.13038481  0.62551485  0.42596429     0.93700
C96         C  0.12572837  0.62729964  0.33667283     0.92800
C97         C  0.12906224  0.67095512  0.38213187     0.84900
C98         C  0.12710532  0.58128841  0.38029940     0.91200
O99         O  0.15076033  0.58575761  0.62949397    -0.72500
O100        O  0.15092817  0.65415050  0.63163223    -0.73500
O101        O  0.15149635  0.61834814  0.66500570    -0.62100
O102        O  0.15024345  0.62128043  0.59658628    -0.70500
O103        O  0.11249556  0.62167138  0.59753147    -0.70100
O104        O  0.11374977  0.61975949  0.66582398    -0.61400
O105        O  0.11317096  0.65458616  0.63277533    -0.73900
O106        O  0.11302653  0.58638613  0.63076306    -0.72600
Cu107      Cu  0.15218975  0.61988483  0.63067385     1.04600
Cu108      Cu  0.11180230  0.62057173  0.63174971     1.04300
C109        C  0.13177005  0.57532099  0.62967779     0.93700
C110        C  0.13209538  0.66509650  0.63250259     0.92800
C111        C  0.13277637  0.61882641  0.67615311     0.84900
C112        C  0.13117233  0.62186441  0.58631010     0.91200
O113        O  0.62418613  0.11485307  0.40631831    -0.72500
O114        O  0.62506224  0.11511913  0.33825655    -0.73500
O115        O  0.65855698  0.11563429  0.37285404    -0.62100
O116        O  0.59044280  0.11454219  0.37222769    -0.70500
O117        O  0.58952862  0.15226170  0.37354784    -0.70100
O118        O  0.65785190  0.15332581  0.37022716    -0.61400
O119        O  0.62188624  0.15277235  0.33779136    -0.73900
O120        O  0.62495626  0.15258870  0.40630379    -0.72600
Cu121      Cu  0.62458154  0.11374599  0.37237203     1.04600
Cu122      Cu  0.62355772  0.15410640  0.37195964     1.04300
C123        C  0.62468866  0.13360533  0.41707029     0.93700
C124        C  0.62321102  0.13385282  0.32730642     0.92800
C125        C  0.66892823  0.13460847  0.37155726     0.84900
C126        C  0.57925362  0.13319761  0.37314562     0.91200
O127        O  0.61758093  0.14476784  0.58850604    -0.72500
O128        O  0.62089431  0.14333094  0.65672377    -0.73500
O129        O  0.65311159  0.14303728  0.62058624    -0.62100
O130        O  0.58470562  0.14488516  0.62420516    -0.70500
O131        O  0.58399295  0.10720988  0.62227480    -0.70100
O132        O  0.65204736  0.10533152  0.62276031    -0.61400
O133        O  0.61749698  0.10573409  0.65653047    -0.73900
O134        O  0.61835662  0.10703254  0.58805976    -0.72600
Cu135      Cu  0.61903968  0.14534829  0.62255145     1.04600
Cu136      Cu  0.61792626  0.10501036  0.62236573     1.04300
C137        C  0.61803147  0.12612863  0.57751230     0.93700
C138        C  0.61960228  0.12435053  0.66733454     0.92800
C139        C  0.66328462  0.12380921  0.62147994     0.84900
C140        C  0.57359770  0.12627673  0.62343571     0.91200
O141        O  0.34000382  0.10962269  0.37361278    -0.72500
O142        O  0.40840642  0.10866859  0.37624869    -0.73500
O143        O  0.37298246  0.10833557  0.40928740    -0.62100
O144        O  0.37594632  0.10963136  0.34103593    -0.70500
O145        O  0.37362743  0.14732924  0.34142919    -0.70100
O146        O  0.37424714  0.14604205  0.40998075    -0.61400
O147        O  0.40813016  0.14641956  0.37533537    -0.73900
O148        O  0.34005681  0.14726946  0.37643643    -0.72600
Cu149      Cu  0.37428264  0.10772340  0.37507210     1.04600
Cu150      Cu  0.37404849  0.14808065  0.37580636     1.04300
C151        C  0.32932030  0.12858385  0.37480702     0.93700
C152        C  0.41900763  0.12756378  0.37581101     0.92800
C153        C  0.37346520  0.12692395  0.42040007     0.84900
C154        C  0.37505550  0.12865725  0.33048755     0.91200
O155        O  0.33380458  0.14081041  0.62638518    -0.72500
O156        O  0.40202470  0.14170030  0.62675861    -0.73500
O157        O  0.36841952  0.14286299  0.59232771    -0.62100
O158        O  0.36696125  0.13979171  0.66022884    -0.70500
O159        O  0.36825979  0.10202391  0.65896921    -0.70100
O160        O  0.36980658  0.10515313  0.59090365    -0.61400
O161        O  0.40289538  0.10397072  0.62554485    -0.73900
O162        O  0.33480839  0.10310844  0.62410395    -0.72600
Cu163      Cu  0.36780647  0.14261413  0.62645904     1.04600
Cu164      Cu  0.36894458  0.10222489  0.62484412     1.04300
C165        C  0.32362967  0.12175548  0.62523953     0.93700
C166        C  0.41319137  0.12300212  0.62620266     0.92800
C167        C  0.36944298  0.12449276  0.58089921     0.84900
C168        C  0.36722574  0.12048688  0.67022302     0.91200
O169        O  0.89046075  0.62598962  0.41323630    -0.72500
O170        O  0.88836006  0.62672686  0.34495113    -0.73500
O171        O  0.89026694  0.66019371  0.37866679    -0.62100
O172        O  0.88878915  0.59236835  0.37909824    -0.70500
O173        O  0.85102954  0.59273718  0.38023117    -0.70100
O174        O  0.85253392  0.66110931  0.38078438    -0.61400
O175        O  0.85060421  0.62710112  0.34632718    -0.73900
O176        O  0.85272163  0.62639868  0.41460339    -0.72600
Cu177      Cu  0.89077056  0.62626578  0.37898742     1.04600
Cu178      Cu  0.85037476  0.62690526  0.38055681     1.04300
C179        C  0.87191462  0.62599357  0.42466878     0.93700
C180        C  0.86915572  0.62701520  0.33491469     0.92800
C181        C  0.87161580  0.67134391  0.37945193     0.84900
C182        C  0.86987521  0.58184152  0.37954364     0.91200
O183        O  0.89712681  0.61928671  0.59543201    -0.72500
O184        O  0.89731094  0.61741545  0.66380061    -0.73500
O185        O  0.89635685  0.58441820  0.62900871    -0.62100
O186        O  0.89796106  0.65270719  0.62983073    -0.70500
O187        O  0.86020105  0.65377974  0.63116036    -0.70100
O188        O  0.85860692  0.58557926  0.62914345    -0.61400
O189        O  0.85953966  0.61889842  0.66410395    -0.73900
O190        O  0.85938830  0.62080910  0.59599362    -0.72600
Cu191      Cu  0.89852891  0.61842790  0.62953640     1.04600
Cu192      Cu  0.85812262  0.61977665  0.63010339     1.04300
C193        C  0.87816918  0.62035645  0.58497528     0.93700
C194        C  0.87843168  0.61794031  0.67464702     0.92800
C195        C  0.87722459  0.57426590  0.62876573     0.84900
C196        C  0.87931575  0.66394500  0.63068395     0.91200
O197        O  0.85876230  0.41079963  0.37374021    -0.72500
O198        O  0.86012736  0.34288716  0.37305560    -0.73500
O199        O  0.85955854  0.37611612  0.40737117    -0.62100
O200        O  0.85965135  0.37735766  0.33910015    -0.70500
O201        O  0.89730463  0.37999781  0.33889170    -0.70100
O202        O  0.89730709  0.37505297  0.40712003    -0.61400
O203        O  0.89783259  0.34327829  0.37065243    -0.73900
O204        O  0.89648061  0.41152882  0.37515256    -0.72600
Cu205      Cu  0.85822581  0.37679628  0.37330228     1.04600
Cu206      Cu  0.89859138  0.37748018  0.37295816     1.04300
C207        C  0.87730746  0.42187654  0.37484382     0.93700
C208        C  0.87910006  0.33237224  0.37153682     0.92800
C209        C  0.87843107  0.37506837  0.41798809     0.84900
C210        C  0.87846004  0.37909241  0.32825371     0.91200
O211        O  0.89455904  0.33403681  0.62382491    -0.72500
O212        O  0.89621592  0.40248129  0.62468174    -0.73500
O213        O  0.89362272  0.36733583  0.65815796    -0.62100
O214        O  0.89715205  0.36890686  0.58985813    -0.70500
O215        O  0.85945588  0.37057501  0.58838009    -0.70100
O216        O  0.85591698  0.36923856  0.65639011    -0.61400
O217        O  0.85852382  0.40373393  0.62290450    -0.73900
O218        O  0.85690238  0.33551102  0.62135219    -0.72600
Cu219      Cu  0.89673576  0.36816618  0.62416851     1.04600
Cu220      Cu  0.85640084  0.36977367  0.62221450     1.04300
C221        C  0.87540666  0.32404460  0.62236520     0.93700
C222        C  0.87761899  0.41385083  0.62404011     0.92800
C223        C  0.87420888  0.36817782  0.66795039     0.84900
C224        C  0.87876463  0.36995008  0.57838884     0.91200
O225        O  0.37293932  0.86170121  0.41168339    -0.72500
O226        O  0.37737032  0.86726914  0.34365093    -0.73500
O227        O  0.40892970  0.86478036  0.37946396    -0.62100
O228        O  0.34094019  0.86411097  0.37531537    -0.70500
O229        O  0.33991285  0.90147163  0.38056005    -0.70100
O230        O  0.40833841  0.90251448  0.38030581    -0.61400
O231        O  0.37390196  0.90480476  0.34617880    -0.73900
O232        O  0.37391403  0.89931637  0.41434973    -0.72600
Cu233      Cu  0.37504679  0.86315117  0.37746578     1.04600
Cu234      Cu  0.37400434  0.90337077  0.38044854     1.04300
C235        C  0.37312773  0.87969267  0.42375086     0.93700
C236        C  0.37597508  0.88684433  0.33423499     0.92800
C237        C  0.41938485  0.88371913  0.38003531     0.84900
C238        C  0.32972150  0.88263065  0.37755980     0.91200
O239        O  0.33936414  0.89069394  0.63121138    -0.72500
O240        O  0.40775001  0.88946620  0.62871525    -0.73500
O241        O  0.37253517  0.89149180  0.59577100    -0.62100
O242        O  0.37499665  0.88895946  0.66390925    -0.70500
O243        O  0.37213678  0.85134000  0.66279518    -0.70100
O244        O  0.37358474  0.85379123  0.59428834    -0.61400
O245        O  0.40715953  0.85172066  0.62892139    -0.73900
O246        O  0.33901639  0.85312924  0.62758630    -0.72600
Cu247      Cu  0.37366675  0.89148121  0.62994098     1.04600
Cu248      Cu  0.37298653  0.85116489  0.62841187     1.04300
C249        C  0.32847275  0.87208499  0.62914055     0.93700
C250        C  0.41820240  0.87035270  0.62876274     0.92800
C251        C  0.37282588  0.87312877  0.58427886     0.84900
C252        C  0.37370418  0.86977107  0.67406970     0.91200
O253        O  0.62111307  0.88659022  0.65906285    -0.72500
O254        O  0.62410542  0.88730461  0.59099013    -0.73500
O255        O  0.58874356  0.88579511  0.62404146    -0.62100
O256        O  0.65679968  0.88797800  0.62631388    -0.70500
O257        O  0.65816506  0.85032059  0.62384536    -0.70100
O258        O  0.58993481  0.84805621  0.62493947    -0.61400
O259        O  0.62408184  0.84956877  0.59026057    -0.73900
O260        O  0.62462245  0.84895952  0.65884853    -0.72600
Cu261      Cu  0.62263270  0.88821428  0.62507529     1.04600
Cu262      Cu  0.62421032  0.84786458  0.62449729     1.04300
C263        C  0.62274944  0.86766359  0.66967097     0.93700
C264        C  0.62449488  0.86871952  0.57987084     0.92800
C265        C  0.57860257  0.86666578  0.62457895     0.84900
C266        C  0.66818862  0.86946571  0.62500560     0.91200
O267        O  0.59118181  0.89681557  0.37597908    -0.72500
O268        O  0.65949489  0.89437274  0.37564352    -0.73500
O269        O  0.62559486  0.89730283  0.34135564    -0.62100
O270        O  0.62559049  0.89376083  0.40967110    -0.70500
O271        O  0.62611151  0.85607384  0.40771281    -0.70100
O272        O  0.62218495  0.85975714  0.33971249    -0.61400
O273        O  0.65835293  0.85688464  0.37147472    -0.73900
O274        O  0.59015583  0.85909251  0.37570844    -0.72600
Cu275      Cu  0.62546968  0.89690467  0.37566742     1.04600
Cu276      Cu  0.62416421  0.85663576  0.37358667     1.04300
C277        C  0.57991258  0.87830179  0.37628450     0.93700
C278        C  0.66963326  0.87525557  0.37346704     0.92800
C279        C  0.62364336  0.87908538  0.32982808     0.84900
C280        C  0.62629304  0.87429342  0.41941799     0.91200
O281        O  0.12307244  0.90377842  0.60610535    -0.72500
O282        O  0.12526452  0.83519663  0.60809079    -0.73500
O283        O  0.08988857  0.86852637  0.60620791    -0.62100
O284        O  0.15799814  0.87001581  0.60737579    -0.70500
O285        O  0.15708379  0.87174087  0.64509830    -0.70100
O286        O  0.08868865  0.86942891  0.64393366    -0.61400
O287        O  0.12376689  0.83639738  0.64583285    -0.73900
O288        O  0.12169042  0.90433574  0.64383249    -0.72600
Cu289      Cu  0.12404765  0.86936054  0.60560226     1.04600
Cu290      Cu  0.12278678  0.87046930  0.64598192     1.04300
C291        C  0.12218833  0.91481178  0.62477997     0.93700
C292        C  0.12486102  0.82511591  0.62740507     0.92800
C293        C  0.07854589  0.86869183  0.62479669     0.84900
C294        C  0.16824348  0.87128808  0.62637481     0.91200
O295        O  0.11949230  0.08655448  0.64573536    -0.72500
O296        O  0.11653888  0.15495994  0.64285677    -0.73500
O297        O  0.08417484  0.11957483  0.64375646    -0.62100
O298        O  0.15228037  0.12221331  0.64504566    -0.70500
O299        O  0.15346265  0.11850622  0.60749080    -0.70100
O300        O  0.08520239  0.12048390  0.60601232    -0.61400
O301        O  0.12032698  0.15368376  0.60527722    -0.73900
O302        O  0.11879033  0.08565156  0.60800876    -0.72600
Cu303      Cu  0.11811879  0.12087154  0.64569759     1.04600
Cu304      Cu  0.11946093  0.11955325  0.60537981     1.04300
C305        C  0.11924907  0.07535357  0.62717824     0.93700
C306        C  0.11826762  0.16502354  0.62360631     0.92800
C307        C  0.07394547  0.11994008  0.62466556     0.84900
C308        C  0.16357834  0.12036482  0.62652791     0.91200
O309        O  0.86950250  0.15351657  0.60198681    -0.72500
O310        O  0.86796911  0.08507672  0.60067165    -0.73500
O311        O  0.83455824  0.12070998  0.60119750    -0.62100
O312        O  0.90289043  0.11836349  0.60118324    -0.70500
O313        O  0.90274777  0.11697875  0.63892581    -0.70100
O314        O  0.83434957  0.11920812  0.63894452    -0.61400
O315        O  0.86778514  0.08434139  0.63842732    -0.73900
O316        O  0.87009830  0.15236431  0.63974287    -0.72600
Cu317      Cu  0.86870706  0.11941564  0.59992258     1.04600
Cu318      Cu  0.86866689  0.11820195  0.64031685     1.04300
C319        C  0.87037487  0.16364386  0.62110558     0.93700
C320        C  0.86791423  0.07396782  0.61944221     0.92800
C321        C  0.82371078  0.12032834  0.62006657     0.84900
C322        C  0.91356611  0.11743268  0.62003679     0.91200
O323        O  0.87278627  0.83572777  0.64361979    -0.72500
O324        O  0.87266912  0.90378652  0.63935042    -0.73500
O325        O  0.83867540  0.87039507  0.64095266    -0.62100
O326        O  0.90682660  0.86976922  0.64199792    -0.70500
O327        O  0.90778810  0.86930868  0.60425141    -0.70100
O328        O  0.83951211  0.86597233  0.60346916    -0.61400
O329        O  0.87190232  0.90194959  0.60166265    -0.73900
O330        O  0.87592622  0.83377317  0.60602984    -0.72600
Cu331      Cu  0.87268947  0.86996818  0.64278522     1.04600
Cu332      Cu  0.87374706  0.86768478  0.60250013     1.04300
C333        C  0.87510336  0.82405519  0.62550610     0.93700
C334        C  0.87203391  0.91359528  0.61993563     0.92800
C335        C  0.82838847  0.86818819  0.62206215     0.84900
C336        C  0.91804787  0.86961873  0.62333097     0.91200
O337        O  0.39561726  0.12688926  0.15924805    -0.72500
O338        O  0.39645569  0.12846640  0.09069883    -0.73500
O339        O  0.39702136  0.16181560  0.12573732    -0.62100
O340        O  0.39465699  0.09366466  0.12463589    -0.70500
O341        O  0.35693269  0.09532203  0.12580458    -0.70100
O342        O  0.35933933  0.16320576  0.12318826    -0.61400
O343        O  0.35871030  0.12851949  0.09054833    -0.73900
O344        O  0.35802989  0.13072525  0.15893508    -0.72600
Cu345      Cu  0.39729152  0.12763728  0.12506261     1.04600
Cu346      Cu  0.35694542  0.12944003  0.12463630     1.04300
C347        C  0.37672371  0.12908465  0.16984233     0.93700
C348        C  0.37767435  0.12866341  0.07984201     0.92800
C349        C  0.37848074  0.17316311  0.12434537     0.84900
C350        C  0.37538057  0.08377325  0.12534514     0.91200
O351        O  0.35052202  0.09088755  0.87568490    -0.72500
O352        O  0.35337681  0.15925946  0.87494495    -0.73500
O353        O  0.35103225  0.12518980  0.84102826    -0.62100
O354        O  0.35297693  0.12536006  0.90926550    -0.70500
O355        O  0.39071166  0.12534130  0.90788064    -0.70100
O356        O  0.38862519  0.12131314  0.83992716    -0.61400
O357        O  0.39095538  0.15769746  0.87128981    -0.73900
O358        O  0.38824472  0.08938471  0.87598674    -0.72600
Cu359      Cu  0.35064532  0.12521796  0.87523837     1.04600
Cu360      Cu  0.39095635  0.12337495  0.87372762     1.04300
C361        C  0.36901887  0.07937834  0.87634595     0.93700
C362        C  0.37251414  0.16922458  0.87277166     0.92800
C363        C  0.36955086  0.12290954  0.82979690     0.84900
C364        C  0.37217528  0.12575978  0.91931495     0.91200
O365        O  0.39009657  0.90863322  0.87974121    -0.72500
O366        O  0.39280638  0.84065407  0.87855463    -0.73500
O367        O  0.39151361  0.87565877  0.84509405    -0.62100
O368        O  0.39144301  0.87400222  0.91327630    -0.70500
O369        O  0.35368005  0.87430844  0.91351153    -0.70100
O370        O  0.35389482  0.87256886  0.84517267    -0.61400
O371        O  0.35511136  0.83941892  0.88070576    -0.73900
O372        O  0.35237709  0.90772644  0.87855398    -0.72600
Cu373      Cu  0.39276603  0.87477055  0.87914689     1.04600
Cu374      Cu  0.35241120  0.87346738  0.87944280     1.04300
C375        C  0.37091958  0.91891077  0.87926024     0.93700
C376        C  0.37438323  0.82932182  0.87989807     0.92800
C377        C  0.37276923  0.87407431  0.83439179     0.84900
C378        C  0.37257103  0.87422520  0.92413244     0.91200
O379        O  0.35643627  0.91298035  0.12786111    -0.72500
O380        O  0.35660393  0.84482498  0.13193941    -0.73500
O381        O  0.35709491  0.88118193  0.16392564    -0.62100
O382        O  0.35627761  0.87733231  0.09556300    -0.70500
O383        O  0.39401503  0.87828375  0.09495322    -0.70100
O384        O  0.39479341  0.87883589  0.16306763    -0.61400
O385        O  0.39428689  0.84448776  0.12916581    -0.73900
O386        O  0.39419453  0.91265732  0.12855999    -0.72600
Cu387      Cu  0.35525859  0.87902850  0.12983177     1.04600
Cu388      Cu  0.39563464  0.87854558  0.12893171     1.04300
C389        C  0.37532129  0.92353819  0.12804061     0.93700
C390        C  0.37542685  0.83392685  0.13072064     0.92800
C391        C  0.37617441  0.88070122  0.17420891     0.84900
C392        C  0.37506944  0.87755083  0.08451116     0.91200
O393        O  0.90950230  0.35759130  0.12399237    -0.72500
O394        O  0.84138468  0.36264273  0.12178356    -0.73500
O395        O  0.87661317  0.35957727  0.08903854    -0.62100
O396        O  0.87396086  0.36044242  0.15726804    -0.70500
O397        O  0.87900220  0.39784422  0.15684753    -0.70100
O398        O  0.87689792  0.39732393  0.08842265    -0.61400
O399        O  0.84366601  0.40024852  0.12400184    -0.73900
O400        O  0.91161565  0.39520989  0.12143530    -0.72600
Cu401      Cu  0.87527272  0.35873010  0.12309191     1.04600
Cu402      Cu  0.87786353  0.39898533  0.12266291     1.04300
C403        C  0.92127150  0.37574672  0.12251251     0.93700
C404        C  0.83183004  0.38217818  0.12274709     0.92800
C405        C  0.87693876  0.37833039  0.07797410     0.84900
C406        C  0.87644478  0.37918904  0.16778211     0.91200
O407        O  0.83967457  0.35718222  0.87512091    -0.72500
O408        O  0.90794403  0.35676531  0.87249041    -0.73500
O409        O  0.87490059  0.35843879  0.90765316    -0.62100
O410        O  0.87292423  0.35532496  0.83964771    -0.70500
O411        O  0.87259265  0.39305565  0.83759565    -0.70100
O412        O  0.87418238  0.39615906  0.90584862    -0.61400
O413        O  0.90777294  0.39449343  0.87087195    -0.73900
O414        O  0.83950367  0.39486958  0.87210910    -0.72600
Cu415      Cu  0.87385757  0.35561424  0.87378936     1.04600
Cu416      Cu  0.87354579  0.39597830  0.87155740     1.04300
C417        C  0.82889580  0.37607008  0.87379514     0.93700
C418        C  0.91861349  0.37559534  0.87141660     0.92800
C419        C  0.87482577  0.37771690  0.91748134     0.84900
C420        C  0.87228766  0.37368019  0.82793050     0.91200
O421        O  0.12572476  0.39193374  0.08481456    -0.72500
O422        O  0.12756293  0.39244565  0.15312417    -0.73500
O423        O  0.16065193  0.39174050  0.11763102    -0.62100
O424        O  0.09250050  0.39256020  0.11989714    -0.70500
O425        O  0.09203938  0.35481700  0.11913493    -0.70100
O426        O  0.16034219  0.35410005  0.12093027    -0.61400
O427        O  0.12466880  0.35480907  0.15396068    -0.73900
O428        O  0.12717150  0.35420419  0.08565268    -0.72600
Cu429      Cu  0.12661349  0.39349168  0.11885513     1.04600
Cu430      Cu  0.12608705  0.35313970  0.11989026     1.04300
C431        C  0.12646871  0.37292683  0.07448498     0.93700
C432        C  0.12587736  0.37379302  0.16426731     0.92800
C433        C  0.17122687  0.37279187  0.11927994     0.84900
C434        C  0.08154237  0.37386597  0.11973726     0.91200
O435        O  0.08987983  0.39010386  0.87086365    -0.72500
O436        O  0.15802344  0.38997081  0.86583607    -0.73500
O437        O  0.12160074  0.38922870  0.83473572    -0.62100
O438        O  0.12588170  0.39088963  0.90264439    -0.70500
O439        O  0.12478536  0.35316881  0.90399669    -0.70100
O440        O  0.12438633  0.35152907  0.83581048    -0.61400
O441        O  0.15850386  0.35234726  0.86944346    -0.73900
O442        O  0.09011541  0.35236081  0.87041159    -0.72600
Cu443      Cu  0.12387126  0.39136725  0.86853673     1.04600
Cu444      Cu  0.12442748  0.35100467  0.86998176     1.04300
C445        C  0.07923447  0.37124888  0.87090751     0.93700
C446        C  0.16896009  0.37115510  0.86685745     0.92800
C447        C  0.12277044  0.37014395  0.82461579     0.84900
C448        C  0.12555875  0.37232081  0.91404943     0.91200
O449        O  0.60896804  0.91392527  0.12346355    -0.72500
O450        O  0.61087139  0.84580922  0.12662649    -0.73500
O451        O  0.60926663  0.88070575  0.15876481    -0.62100
O452        O  0.61088973  0.87839593  0.09050024    -0.70500
O453        O  0.64862024  0.87919365  0.09094501    -0.70100
O454        O  0.64699126  0.88255923  0.15918019    -0.61400
O455        O  0.64865319  0.84666847  0.12665965    -0.73900
O456        O  0.64670547  0.91488046  0.12328482    -0.72600
Cu457      Cu  0.60867883  0.87971043  0.12474708     1.04600
Cu458      Cu  0.64907040  0.88084665  0.12503100     1.04300
C459        C  0.62750364  0.92515673  0.12319635     0.93700
C460        C  0.63004095  0.83558057  0.12729319     0.92800
C461        C  0.62791388  0.88196378  0.16966735     0.84900
C462        C  0.62998751  0.87828245  0.07996650     0.91200
O463        O  0.65157875  0.90915140  0.87334076    -0.72500
O464        O  0.65133292  0.84065877  0.87388643    -0.73500
O465        O  0.65044559  0.87432593  0.83955933    -0.62100
O466        O  0.65278871  0.87499467  0.90799128    -0.70500
O467        O  0.61505031  0.87558357  0.90929751    -0.70100
O468        O  0.61271198  0.87527057  0.84114100    -0.61400
O469        O  0.61360202  0.84130958  0.87609992    -0.73900
O470        O  0.61385253  0.90945418  0.87500623    -0.72600
Cu471      Cu  0.65289185  0.87482279  0.87364955     1.04600
Cu472      Cu  0.61251581  0.87543692  0.87540251     1.04300
C473        C  0.63270982  0.92005835  0.87420934     0.93700
C474        C  0.63233653  0.83028100  0.87512284     0.92800
C475        C  0.63118641  0.87442087  0.82962017     0.84900
C476        C  0.63421375  0.87525421  0.91939201     0.91200
O477        O  0.60870104  0.15921548  0.87244761    -0.72500
O478        O  0.60933443  0.09107062  0.87316573    -0.73500
O479        O  0.60940614  0.12531865  0.90660178    -0.62100
O480        O  0.60841685  0.12464342  0.83857969    -0.70500
O481        O  0.64618078  0.12528328  0.83759152    -0.70100
O482        O  0.64715239  0.12604966  0.90598825    -0.61400
O483        O  0.64709089  0.09138170  0.87231751    -0.73900
O484        O  0.64645431  0.15963101  0.87072627    -0.72600
Cu485      Cu  0.60766264  0.12507960  0.87269590     1.04600
Cu486      Cu  0.64807084  0.12556571  0.87164830     1.04300
C487        C  0.62740990  0.17012048  0.87148701     0.93700
C488        C  0.62835531  0.08049291  0.87289194     0.92800
C489        C  0.62835832  0.12581607  0.91703904     0.84900
C490        C  0.62707991  0.12484647  0.82737961     0.91200
O491        O  0.64683095  0.09634625  0.12253366    -0.72500
O492        O  0.64778991  0.16470182  0.12310272    -0.73500
O493        O  0.64647656  0.12977722  0.15681135    -0.62100
O494        O  0.64794332  0.13075898  0.08844884    -0.70500
O495        O  0.61022957  0.12938397  0.08795292    -0.70100
O496        O  0.60885900  0.13330589  0.15598968    -0.61400
O497        O  0.61020887  0.16543406  0.11967751    -0.73900
O498        O  0.60911334  0.09694692  0.12409846    -0.72600
Cu499      Cu  0.64859827  0.13040265  0.12271316     1.04600
Cu500      Cu  0.60827821  0.13129579  0.12191166     1.04300
C501        C  0.62788988  0.08586704  0.12367477     0.93700
C502        C  0.62915750  0.17582166  0.12119718     0.92800
C503        C  0.62738277  0.13164709  0.16710931     0.84900
C504        C  0.62928187  0.12976575  0.07745560     0.91200
O505        O  0.12282833  0.64522661  0.09711406    -0.72500
O506        O  0.12391589  0.64657035  0.16545292    -0.73500
O507        O  0.15763591  0.64654081  0.13003426    -0.62100
O508        O  0.08938430  0.64534630  0.13201168    -0.70500
O509        O  0.09028780  0.60762576  0.13363635    -0.70100
O510        O  0.15863982  0.60879817  0.13138082    -0.61400
O511        O  0.12573430  0.60883688  0.16640831    -0.73900
O512        O  0.12353883  0.60748430  0.09835962    -0.72600
Cu513      Cu  0.12342015  0.64724670  0.13116156     1.04600
Cu514      Cu  0.12455937  0.60686608  0.13247978     1.04300
C515        C  0.12298858  0.62608156  0.08700561     0.93700
C516        C  0.12510215  0.62789821  0.17663884     0.92800
C517        C  0.16886503  0.62787349  0.13027339     0.84900
C518        C  0.07907976  0.62630980  0.13301886     0.91200
O519        O  0.09186647  0.63794854  0.88160023    -0.72500
O520        O  0.16010966  0.64116793  0.87993915    -0.73500
O521        O  0.12546592  0.63832997  0.84680054    -0.62100
O522        O  0.12615326  0.64116191  0.91490867    -0.70500
O523        O  0.12621448  0.60344694  0.91680857    -0.70100
O524        O  0.12963923  0.60080523  0.84828245    -0.61400
O525        O  0.16172102  0.60361531  0.88401983    -0.73900
O526        O  0.09376428  0.60023302  0.88165251    -0.72600
Cu527      Cu  0.12584762  0.64096697  0.88075315     1.04600
Cu528      Cu  0.12790735  0.60068565  0.88272749     1.04300
C529        C  0.08208113  0.61861053  0.88185379     0.93700
C530        C  0.17161625  0.62277297  0.88193700     0.92800
C531        C  0.12785075  0.61927052  0.83678536     0.84900
C532        C  0.12576994  0.62278174  0.92659781     0.91200
O533        O  0.84278930  0.59711942  0.88064897    -0.72500
O534        O  0.91126500  0.59791628  0.87996104    -0.73500
O535        O  0.87708377  0.59786884  0.91418458    -0.62100
O536        O  0.87725449  0.59706729  0.84599657    -0.70500
O537        O  0.87606444  0.63482340  0.84517257    -0.70100
O538        O  0.87628526  0.63561803  0.91350065    -0.61400
O539        O  0.91044795  0.63565979  0.87912372    -0.73900
O540        O  0.84243985  0.63488171  0.87933852    -0.72600
Cu541      Cu  0.87710967  0.59615765  0.88018660     1.04600
Cu542      Cu  0.87630720  0.63655761  0.87925688     1.04300
C543        C  0.83190840  0.61599551  0.88013431     0.93700
C544        C  0.92160832  0.61695748  0.87961565     0.92800
C545        C  0.87662025  0.61684874  0.92458777     0.84900
C546        C  0.87665095  0.61579130  0.83486565     0.91200
O547        O  0.83976009  0.64185510  0.12822930    -0.72500
O548        O  0.90786298  0.64073915  0.12931434    -0.73500
O549        O  0.87442931  0.63972393  0.09497159    -0.62100
O550        O  0.87332019  0.64279690  0.16296901    -0.70500
O551        O  0.87198847  0.60508807  0.16510484    -0.70100
O552        O  0.87415867  0.60200506  0.09667255    -0.61400
O553        O  0.90762610  0.60306124  0.13181066    -0.73900
O554        O  0.83913326  0.60413840  0.13062039    -0.72600
Cu555      Cu  0.87386086  0.64255539  0.12880686     1.04600
Cu556      Cu  0.87325335  0.60220264  0.13107931     1.04300
C557        C  0.82875039  0.62324328  0.12943927     0.93700
C558        C  0.91850911  0.62181654  0.13078439     0.92800
C559        C  0.87443842  0.62048101  0.08507207     0.84900
C560        C  0.87223022  0.62448549  0.17471053     0.91200
O561        O  0.37660076  0.41227779  0.10253473    -0.72500
O562        O  0.37650102  0.34405537  0.10254011    -0.73500
O563        O  0.34246991  0.37852645  0.10233668    -0.62100
O564        O  0.41077926  0.37816143  0.10296109    -0.70500
O565        O  0.41030053  0.37936180  0.14068865    -0.70100
O566        O  0.34207736  0.37554839  0.14000902    -0.61400
O567        O  0.37847123  0.34353483  0.14025155    -0.73900
O568        O  0.37442253  0.41186797  0.14023047    -0.72600
Cu569      Cu  0.37661052  0.37822160  0.10127505     1.04600
Cu570      Cu  0.37625646  0.37757654  0.14163633     1.04300
C571        C  0.37542057  0.42284817  0.12139557     0.93700
C572        C  0.37780049  0.33308696  0.12131513     0.92800
C573        C  0.33154836  0.37681294  0.12109533     0.84900
C574        C  0.42128187  0.37913362  0.12190053     0.91200
O575        O  0.34010177  0.62638010  0.14572640    -0.72500
O576        O  0.40823215  0.62909393  0.14479971    -0.73500
O577        O  0.37236913  0.66210741  0.14624785    -0.62100
O578        O  0.37556737  0.59379739  0.14417851    -0.70500
O579        O  0.37397935  0.59513290  0.10649518    -0.70100
O580        O  0.37444939  0.66363591  0.10854326    -0.61400
O581        O  0.40814825  0.62921583  0.10704131    -0.73900
O582        O  0.33977418  0.63014105  0.10811221    -0.72600
Cu583      Cu  0.37410616  0.62782061  0.14654981     1.04600
Cu584      Cu  0.37404762  0.62955503  0.10620468     1.04300
C585        C  0.32923039  0.62815760  0.12707886     0.93700
C586        C  0.41893129  0.62929151  0.12583147     0.92800
C587        C  0.37319592  0.67359317  0.12773500     0.84900
C588        C  0.37499279  0.58367926  0.12503711     0.91200
O589        O  0.62572730  0.66592248  0.10982717    -0.72500
O590        O  0.62292109  0.59798965  0.10789922    -0.73500
O591        O  0.59007055  0.63364949  0.10884676    -0.62100
O592        O  0.65831163  0.63085369  0.10916869    -0.70500
O593        O  0.65775855  0.62879571  0.14691331    -0.70100
O594        O  0.58973019  0.63197350  0.14658729    -0.61400
O595        O  0.62238671  0.59645418  0.14563853    -0.73900
O596        O  0.62463714  0.66457899  0.14760280    -0.72600
Cu597      Cu  0.62426818  0.63212384  0.10760310     1.04600
Cu598      Cu  0.62364729  0.63042287  0.14801029     1.04300
C599        C  0.62546592  0.67590508  0.12900364     0.93700
C600        C  0.62219061  0.58650256  0.12640871     0.92800
C601        C  0.57917632  0.63325121  0.12771434     0.84900
C602        C  0.66872789  0.62945721  0.12812688     0.91200
O603        O  0.66100503  0.38391844  0.14290867    -0.72500
O604        O  0.59272621  0.37892954  0.14369480    -0.73500
O605        O  0.62974876  0.34697582  0.14319107    -0.62100
O606        O  0.62426976  0.41510415  0.14341029    -0.70500
O607        O  0.62557739  0.41569119  0.10567381    -0.70100
O608        O  0.62690617  0.34726659  0.10555323    -0.61400
O609        O  0.59239818  0.38100475  0.10599007    -0.73900
O610        O  0.66068314  0.38181139  0.10522348    -0.72600
Cu611      Cu  0.62695125  0.38116119  0.14462966     1.04600
Cu612      Cu  0.62643354  0.38143442  0.10428297     1.04300
C613        C  0.67156282  0.38349526  0.12387940     0.93700
C614        C  0.58180101  0.37982611  0.12496441     0.92800
C615        C  0.62874152  0.33638117  0.12432571     0.84900
C616        C  0.62421171  0.42613351  0.12462747     0.91200
O617        O  0.37572385  0.59109028  0.85864315    -0.72500
O618        O  0.37837754  0.65930533  0.86156272    -0.73500
O619        O  0.41108873  0.62364128  0.86022454    -0.62100
O620        O  0.34288925  0.62693220  0.85947597    -0.70500
O621        O  0.34199741  0.62234491  0.89699870    -0.70100
O622        O  0.41053196  0.62374475  0.89796083    -0.61400
O623        O  0.37486356  0.65738520  0.89915730    -0.73900
O624        O  0.37682883  0.58931966  0.89635350    -0.72600
Cu625      Cu  0.37705104  0.62531146  0.85865685     1.04600
Cu626      Cu  0.37608119  0.62317496  0.89896282     1.04300
C627        C  0.37606385  0.57948580  0.87710456     0.93700
C628        C  0.37644339  0.66904409  0.88082332     0.92800
C629        C  0.42160209  0.62339013  0.87915373     0.84900
C630        C  0.33173380  0.62466505  0.87803187     0.91200
O631        O  0.62864521  0.65962023  0.85785557    -0.72500
O632        O  0.62767913  0.59145579  0.85713046    -0.73500
O633        O  0.59361611  0.62601564  0.85684181    -0.62100
O634        O  0.66207648  0.62505202  0.85842873    -0.70500
O635        O  0.66074048  0.62323813  0.89617817    -0.70100
O636        O  0.59272283  0.62571070  0.89458595    -0.61400
O637        O  0.62591323  0.59058738  0.89485741    -0.73900
O638        O  0.62741968  0.65891306  0.89561113    -0.72600
Cu639      Cu  0.62801051  0.62557358  0.85622153     1.04600
Cu640      Cu  0.62667003  0.62464195  0.89661584     1.04300
C641        C  0.62826366  0.66999507  0.87684716     0.93700
C642        C  0.62675686  0.58028964  0.87582139     0.92800
C643        C  0.58240261  0.62587867  0.87555202     0.84900
C644        C  0.67207178  0.62372214  0.87762107     0.91200
O645        O  0.65811647  0.37740968  0.85473818    -0.72500
O646        O  0.59005172  0.37451894  0.85507005    -0.73500
O647        O  0.62281324  0.40986267  0.85572592    -0.62100
O648        O  0.62597910  0.34165303  0.85415402    -0.70500
O649        O  0.62327189  0.34038880  0.89183222    -0.70100
O650        O  0.62378309  0.40861208  0.89345690    -0.61400
O651        O  0.58937892  0.37492089  0.89281355    -0.73900
O652        O  0.65785381  0.37403452  0.89238238    -0.72600
Cu653      Cu  0.62417305  0.37585979  0.85360481     1.04600
Cu654      Cu  0.62357370  0.37444051  0.89396386     1.04300
C655        C  0.66870137  0.37607168  0.87358142     0.93700
C656        C  0.57895636  0.37465008  0.87382241     0.92800
C657        C  0.62333051  0.41997113  0.87486037     0.84900
C658        C  0.62499308  0.33031051  0.87273870     0.91200
O659        O  0.37245014  0.33996832  0.88636570    -0.72500
O660        O  0.37242053  0.40803567  0.88812414    -0.73500
O661        O  0.33860956  0.37373373  0.88534352    -0.62100
O662        O  0.40667732  0.37397661  0.88892029    -0.70500
O663        O  0.40880166  0.37503627  0.85121621    -0.70100
O664        O  0.34062359  0.37564868  0.84763473    -0.61400
O665        O  0.37473968  0.40938746  0.85043543    -0.73900
O666        O  0.37503043  0.34096017  0.84867206    -0.72600
Cu667      Cu  0.37247948  0.37392978  0.88849030     1.04600
Cu668      Cu  0.37486066  0.37531755  0.84814491     1.04300
C669        C  0.37369182  0.32973727  0.86733140     0.93700
C670        C  0.37361475  0.41943740  0.86960726     0.92800
C671        C  0.32893885  0.37441140  0.86596651     0.84900
C672        C  0.41846594  0.37448601  0.87060402     0.91200
C673        C  0.51894618  0.37545400  0.88426841     0.20700
C674        C  0.49873923  0.37660614  0.89707339    -0.39100
C675        C  0.47851696  0.37546256  0.88456468     0.19700
C676        C  0.47846823  0.37339238  0.86112392     0.22400
C677        C  0.49862738  0.37222298  0.84835344    -0.39600
C678        C  0.51880011  0.37335323  0.86083533     0.21200
N679        N  0.54040714  0.37615517  0.89201840    -0.32900
C680        C  0.55394372  0.37450473  0.87333632    -0.10500
C681        C  0.54107169  0.37275762  0.85360702    -0.29300
N682        N  0.45711374  0.37279876  0.85322391    -0.45900
C683        C  0.44342360  0.37443591  0.87175249    -0.05200
C684        C  0.45612872  0.37610859  0.89163513    -0.22500
H685        H  0.49875586  0.37827487  0.91539047     0.19300
H686        H  0.49860802  0.37058787  0.83003187     0.18100
H687        H  0.54720769  0.37122946  0.83629542     0.14400
H688        H  0.44982847  0.37769452  0.90888238     0.14200
H689        H  0.54551921  0.37771866  0.90892545     0.32400
H690        H  0.45215714  0.37132998  0.83625566     0.35100
C691        C  0.62503258  0.52053267  0.88674689     0.20700
C692        C  0.62293067  0.50060575  0.89982219    -0.39100
C693        C  0.62365944  0.48020820  0.88763553     0.19700
C694        C  0.62628878  0.47971626  0.86423037     0.22400
C695        C  0.62850195  0.49963248  0.85117092    -0.39600
C696        C  0.62771197  0.52002300  0.86334753     0.21200
N697        N  0.62448769  0.54206073  0.89420544    -0.32900
C698        C  0.62673929  0.55532597  0.87539722    -0.10500
C699        C  0.62886534  0.54220723  0.85583493    -0.29300
N700        N  0.62628052  0.45822063  0.85669305    -0.45900
C701        C  0.62370204  0.44493248  0.87544204    -0.05200
C702        C  0.62203658  0.45801550  0.89507426    -0.22500
H703        H  0.62075630  0.50096252  0.91810486     0.19300
H704        H  0.63052104  0.49928360  0.83287072     0.18100
H705        H  0.63083085  0.54811753  0.83846670     0.14400
H706        H  0.61993291  0.45208145  0.91241793     0.14200
H707        H  0.62250277  0.54739548  0.91100260     0.32400
H708        H  0.62808922  0.45291464  0.83986710     0.35100
C709        C  0.37499799  0.52055358  0.86319010     0.20700
C710        C  0.37502259  0.50149919  0.84900945    -0.39100
C711        C  0.37445134  0.48037577  0.86015102     0.19700
C712        C  0.37385099  0.47838191  0.88362112     0.22400
C713        C  0.37385962  0.49744150  0.89782219    -0.39600
C714        C  0.37448260  0.51857440  0.88666633     0.21200
N715        N  0.37556938  0.54249602  0.85676641    -0.32900
C716        C  0.37549659  0.55455738  0.87630346    -0.10500
C717        C  0.37480098  0.54025145  0.89531476    -0.29300
N718        N  0.37340298  0.45641849  0.88998815    -0.45900
C719        C  0.37375751  0.44438069  0.87041355    -0.05200
C720        C  0.37442470  0.45871685  0.85145009    -0.22500
H721        H  0.37550081  0.50300879  0.83066083     0.19300
H722        H  0.37346300  0.49592930  0.91617440     0.18100
H723        H  0.37457406  0.54507417  0.91304429     0.14400
H724        H  0.37486213  0.45392924  0.83371552     0.14200
H725        H  0.37605844  0.54884994  0.84017198     0.32400
H726        H  0.37296380  0.45003058  0.90657440     0.35100
C727        C  0.48129173  0.62187713  0.86669934     0.20700
C728        C  0.50089844  0.62145104  0.85291556    -0.39100
C729        C  0.52168321  0.62313717  0.86439988     0.19700
C730        C  0.52279244  0.62497301  0.88781886     0.22400
C731        C  0.50321520  0.62526116  0.90159431    -0.39600
C732        C  0.48244565  0.62367169  0.89011746     0.21200
N733        N  0.45951882  0.62127060  0.85989693    -0.32900
C734        C  0.44669443  0.62274224  0.87909981    -0.10500
C735        C  0.46041156  0.62412787  0.89831695    -0.29300
N736        N  0.54448919  0.62643754  0.89462723    -0.45900
C737        C  0.55735545  0.62554662  0.87544346    -0.05200
C738        C  0.54373882  0.62349552  0.85620640    -0.22500
H739        H  0.50002102  0.62014213  0.83459295     0.19300
H740        H  0.50408871  0.62683263  0.91989428     0.18100
H741        H  0.45499241  0.62570332  0.91585591     0.14400
H742        H  0.54923857  0.62224008  0.83866347     0.14200
H743        H  0.45373361  0.62021553  0.84317715     0.32400
H744        H  0.55020398  0.62787048  0.91134357     0.35100
C745        C  0.62036684  0.52663524  0.13668702     0.20700
C746        C  0.62068273  0.50657881  0.14970852    -0.39100
C747        C  0.62081405  0.48629236  0.13735056     0.19700
C748        C  0.62054335  0.48596350  0.11381316     0.22400
C749        C  0.62007929  0.50605166  0.10077576    -0.39600
C750        C  0.62007827  0.52637128  0.11314754     0.21200
N751        N  0.62096018  0.54806241  0.14437840    -0.32900
C752        C  0.62112169  0.56156107  0.12561251    -0.10500
C753        C  0.62051658  0.54866943  0.10579978    -0.29300
N754        N  0.62152836  0.46447871  0.10618184    -0.45900
C755        C  0.62249911  0.45109081  0.12502305    -0.05200
C756        C  0.62197471  0.46408213  0.14476357    -0.22500
H757        H  0.62119674  0.50675724  0.16810225     0.19300
H758        H  0.62013081  0.50587852  0.08237277     0.18100
H759        H  0.62069403  0.55478350  0.08839763     0.14400
H760        H  0.62274675  0.45808289  0.16218633     0.14200
H761        H  0.62152334  0.55317565  0.16134636     0.32400
H762        H  0.62181236  0.45926411  0.08922327     0.35100
C763        C  0.51972368  0.63415214  0.11589642     0.20700
C764        C  0.50013808  0.63451142  0.10239734    -0.39100
C765        C  0.47947187  0.63220188  0.11416558     0.19700
C766        C  0.47841183  0.62972912  0.13758065     0.22400
C767        C  0.49799359  0.62931654  0.15107604    -0.39600
C768        C  0.51864772  0.63166432  0.13931052     0.21200
N769        N  0.54141716  0.63556123  0.10878764    -0.32900
C770        C  0.55421633  0.63386528  0.12781449    -0.10500
C771        C  0.54063019  0.63156143  0.14720028    -0.29300
N772        N  0.45673659  0.62817166  0.14468219    -0.45900
C773        C  0.44390703  0.62969053  0.12565808    -0.05200
C774        C  0.45747143  0.63211828  0.10626853    -0.22500
H775        H  0.50093446  0.63642089  0.08409180     0.19300
H776        H  0.49720508  0.62730454  0.16937308     0.18100
H777        H  0.54612694  0.62953382  0.16463667     0.14400
H778        H  0.45195987  0.63389748  0.08881379     0.14200
H779        H  0.54716603  0.63716509  0.09201450     0.32400
H780        H  0.45101873  0.62634965  0.16144570     0.35100
C781        C  0.52231607  0.38083850  0.11291942     0.20700
C782        C  0.50285215  0.38129946  0.09923837    -0.39100
C783        C  0.48200871  0.38104209  0.11091101     0.19700
C784        C  0.48065373  0.38052122  0.13441938     0.22400
C785        C  0.50013545  0.38011327  0.14811431    -0.39600
C786        C  0.52100495  0.38022364  0.13642814     0.21200
N787        N  0.54408745  0.38065845  0.10592530    -0.32900
C788        C  0.55677375  0.37984705  0.12509219    -0.10500
C789        C  0.54298604  0.37958867  0.14448576    -0.29300
N790        N  0.45884864  0.37999162  0.14134167    -0.45900
C791        C  0.44626136  0.38004130  0.12209192    -0.05200
C792        C  0.46009829  0.38076821  0.10277134    -0.22500
H793        H  0.50386698  0.38160772  0.08085577     0.19300
H794        H  0.49911717  0.37953274  0.16649119     0.18100
H795        H  0.54832373  0.37905427  0.16206502     0.14400
H796        H  0.45483349  0.38085134  0.08516472     0.14200
H797        H  0.54995283  0.38106056  0.08913447     0.32400
H798        H  0.45291059  0.37936230  0.15810381     0.35100
C799        C  0.37527608  0.48237124  0.13354912     0.20700
C800        C  0.37483775  0.50181737  0.14722276    -0.39100
C801        C  0.37529326  0.52270910  0.13558736     0.19700
C802        C  0.37608483  0.52418084  0.11209490     0.22400
C803        C  0.37662402  0.50469237  0.09838284    -0.39600
C804        C  0.37618796  0.48375320  0.11005009     0.21200
N805        N  0.37481288  0.46057500  0.14054175    -0.32900
C806        C  0.37543076  0.44790945  0.12139142    -0.10500
C807        C  0.37635751  0.46176138  0.10200774    -0.29300
N808        N  0.37612360  0.54607354  0.10524228    -0.45900
C809        C  0.37540525  0.55859335  0.12453414    -0.05200
C810        C  0.37491358  0.54458892  0.14377979    -0.22500
H811        H  0.37411266  0.50075766  0.16559409     0.19300
H812        H  0.37724670  0.50575009  0.08000768     0.18100
H813        H  0.37703447  0.45644852  0.08443122     0.14400
H814        H  0.37421679  0.54973906  0.16140434     0.14200
H815        H  0.37412925  0.45466899  0.15735110     0.32400
H816        H  0.37657975  0.55212387  0.08848932     0.35100
C817        C  0.76960386  0.63351257  0.12130770     0.20700
C818        C  0.75024339  0.64309176  0.11116685    -0.39100
C819        C  0.72935491  0.63553292  0.11982382     0.19700
C820        C  0.72785358  0.62005083  0.13761994     0.22400
C821        C  0.74722612  0.61013939  0.14748880    -0.39600
C822        C  0.76813383  0.61729559  0.13844435     0.21200
N823        N  0.79141073  0.63785846  0.11610701    -0.32900
C824        C  0.80386382  0.62390859  0.12963146    -0.10500
C825        C  0.79001905  0.61076306  0.14376411    -0.29300
N826        N  0.70601082  0.61612101  0.14309051    -0.45900
C827        C  0.69361415  0.62880830  0.12831117    -0.05200
C828        C  0.70751514  0.64107311  0.11348730    -0.22500
H829        H  0.75136255  0.65542178  0.09746153     0.19300
H830        H  0.74610062  0.59769684  0.16109196     0.18100
H831        H  0.79529130  0.59840517  0.15643128     0.14400
H832        H  0.70231278  0.65268873  0.10011234     0.14200
H833        H  0.79746817  0.64929936  0.10387218     0.32400
H834        H  0.69989281  0.60521061  0.15577214     0.35100
C835        C  0.77290278  0.62821907  0.87443394     0.20700
C836        C  0.75383154  0.64031793  0.86675729    -0.39100
C837        C  0.73277295  0.63117270  0.87292967     0.19700
C838        C  0.73082534  0.61181328  0.88633480     0.22400
C839        C  0.74995844  0.59951499  0.89381647    -0.39600
C840        C  0.77109238  0.60834460  0.88707547     0.21200
N841        N  0.79474905  0.63331489  0.87050348    -0.32900
C842        C  0.80700103  0.61637644  0.88028538    -0.10500
C843        C  0.79290803  0.60037708  0.89076033    -0.29300
N844        N  0.70883802  0.60684110  0.89001552    -0.45900
C845        C  0.69688538  0.62286519  0.87841488    -0.00400
C846        C  0.71114571  0.63827919  0.86748909    -0.22500
H847        H  0.75529543  0.65557180  0.85646075     0.19300
H848        H  0.74848915  0.58409734  0.90386329     0.18100
H849        H  0.79795025  0.58524720  0.90007323     0.14400
H850        H  0.70630862  0.65280246  0.85715424     0.14200
H851        H  0.80096922  0.64732185  0.86145998     0.32400
H852        H  0.70233918  0.59316560  0.89937886     0.35100
C853        C  0.87540098  0.60757784  0.02569416     0.20700
C854        C  0.87621725  0.59392839  0.00621701    -0.39100
C855        C  0.87617044  0.60565939  0.98534749     0.19700
C856        C  0.87533312  0.62916318  0.98398096     0.22400
C857        C  0.87448336  0.64279373  0.00342882    -0.39600
C858        C  0.87458653  0.63107741  0.02426858     0.21200
N859        N  0.87542175  0.60064309  0.04754845    -0.32900
C860        C  0.87467050  0.61991900  0.06005910    -0.10500
C861        C  0.87411012  0.63920016  0.04613023    -0.29300
N862        N  0.87547292  0.63618229  0.96218862    -0.45900
C863        C  0.87639145  0.61699554  0.94958417    -0.05200
C864        C  0.87685908  0.59762410  0.96341332    -0.22500
H865        H  0.87689263  0.57555524  0.00722763     0.19300
H866        H  0.87385333  0.66116946  0.00241632     0.18100
H867        H  0.87347265  0.65681195  0.05132700     0.14400
H868        H  0.87755651  0.58004585  0.95811574     0.14200
H869        H  0.87598869  0.58391910  0.05355288     0.32400
H870        H  0.87491889  0.65294173  0.95627394     0.35100
C871        C  0.27242573  0.61534446  0.88583290     0.20700
C872        C  0.25298889  0.60507415  0.89503854    -0.39100
C873        C  0.23219633  0.61417896  0.88779085     0.19700
C874        C  0.23081061  0.63236682  0.87276619     0.22400
C875        C  0.25028935  0.64227813  0.86306284    -0.39600
C876        C  0.27115055  0.63293241  0.87008838     0.21200
N877        N  0.29414998  0.61028897  0.89065700    -0.32900
C878        C  0.30682944  0.62445103  0.87760924    -0.10500
C879        C  0.29316554  0.63870944  0.86435746    -0.29300
N880        N  0.20898390  0.63826293  0.86921206    -0.45900
C881        C  0.19651611  0.62339564  0.88173905    -0.05200
C882        C  0.21035502  0.60807066  0.89344959    -0.22500
H883        H  0.25398771  0.59113669  0.90711701     0.19300
H884        H  0.24928614  0.65631743  0.85110385     0.18100
H885        H  0.29861635  0.65191648  0.85266965     0.14400
H886        H  0.20510584  0.59437937  0.90466275     0.14200
H887        H  0.30002913  0.59789950  0.90204669     0.32400
H888        H  0.20291983  0.65119004  0.85854762     0.35100
C889        C  0.02218428  0.62873399  0.88279001     0.20700
C890        C  0.00219819  0.64183613  0.88229524    -0.39100
C891        C  0.98187148  0.62957549  0.88150357     0.19700
C892        C  0.98145885  0.60604414  0.88138456     0.22400
C893        C  0.00147957  0.59291032  0.88195643    -0.39600
C894        C  0.02185356  0.60519783  0.88258966     0.21200
N895        N  0.04363031  0.63639316  0.88283182    -0.32900
C896        C  0.05711152  0.61764218  0.88248847    -0.10500
C897        C  0.04416805  0.59781873  0.88248221    -0.29300
N898        N  0.95994705  0.59851686  0.88051654    -0.45900
C899        C  0.94661106  0.61740678  0.88005763    -0.05200
C900        C  0.95967890  0.63709908  0.88061704    -0.22500
H901        H  0.00247095  0.66023612  0.88227595     0.19300
H902        H  0.00121838  0.57451478  0.88167659     0.18100
H903        H  0.05025647  0.58042122  0.88207149     0.14400
H904        H  0.95373066  0.65455163  0.88051409     0.14200
H905        H  0.04877937  0.65335804  0.88276341     0.32400
H906        H  0.95466602  0.58159995  0.88031764     0.35100
C907        C  0.22870312  0.61833974  0.13435403     0.20700
C908        C  0.24869707  0.60715609  0.14116524    -0.39100
C909        C  0.26907356  0.61770087  0.13470027     0.19700
C910        C  0.26950574  0.63761611  0.12199530     0.22400
C911        C  0.24949484  0.64907133  0.11560855    -0.39600
C912        C  0.22909948  0.63873577  0.12244976     0.21200
N913        N  0.20721135  0.61174663  0.13832133    -0.32900
C914        C  0.19382275  0.62828431  0.12931472    -0.10500
C915        C  0.20682245  0.64545618  0.11931060    -0.29300
N916        N  0.29103605  0.64372013  0.11734063    -0.45900
C917        C  0.30432301  0.62780839  0.12754089    -0.05200
C918        C  0.29130639  0.61140901  0.13868768    -0.22500
H919        H  0.24840530  0.59140585  0.15079242     0.19300
H920        H  0.24978502  0.66484673  0.10602408     0.18100
H921        H  0.20077390  0.66064706  0.11072437     0.14400
H922        H  0.29732716  0.59670166  0.14809822     0.14200
H923        H  0.20195109  0.59709035  0.14697544     0.32400
H924        H  0.29639809  0.65798240  0.10812917     0.35100
C925        C  0.97792064  0.63433455  0.13032787     0.20700
C926        C  0.99729572  0.64807193  0.12860990    -0.39100
C927        C  0.01821392  0.63675711  0.13099119     0.19700
C928        C  0.01971393  0.61353273  0.13474064     0.22400
C929        C  0.00032075  0.59980118  0.13648870    -0.39600
C930        C  0.97938114  0.61111505  0.13410849     0.21200
N931        N  0.95610958  0.64098582  0.12864383    -0.32900
C932        C  0.94354334  0.62188666  0.13132724    -0.10500
C933        C  0.95745716  0.60287970  0.13476836    -0.29300
N934        N  0.04156684  0.60685064  0.13609393    -0.45900
C935        C  0.05405797  0.62596966  0.13323651    -0.05200
C936        C  0.04009172  0.64497584  0.13004641    -0.22500
H937        H  0.99616433  0.66621791  0.12558352     0.19300
H938        H  0.00145782  0.58164056  0.13939884     0.18100
H939        H  0.95224005  0.58544718  0.13745906     0.14400
H940        H  0.04526520  0.66239500  0.12715729     0.14200
H941        H  0.95013851  0.65751373  0.12580497     0.32400
H942        H  0.04760313  0.59032123  0.13869890     0.35100
C943        C  0.12346368  0.63635895  0.02706103     0.20700
C944        C  0.12472877  0.64921295  0.00689109    -0.39100
C945        C  0.12420563  0.63671265  0.98666358     0.19700
C946        C  0.12252473  0.61323967  0.98657899     0.22400
C947        C  0.12122368  0.60041658  0.00672548    -0.39600
C948        C  0.12181179  0.61288773  0.02691953     0.21200
N949        N  0.12392990  0.64410574  0.04849443    -0.32900
C950        C  0.12263333  0.62540083  0.06204238    -0.10500
C951        C  0.12128748  0.60562382  0.04921055    -0.29300
N952        N  0.12277477  0.60533728  0.96521478    -0.45900
C953        C  0.12467944  0.62388771  0.95156158    -0.05200
C954        C  0.12552164  0.64379970  0.96430366    -0.22500
H955        H  0.12619139  0.66754913  0.00694572     0.19300
H956        H  0.12004417  0.58205905  0.00668044     0.18100
H957        H  0.12019491  0.58827681  0.05537073     0.14400
H958        H  0.12712401  0.66107352  0.95805437     0.14200
H959        H  0.12525381  0.66100959  0.05358111     0.32400
H960        H  0.12183758  0.58836494  0.96023875     0.35100
C961        C  0.63772726  0.23528730  0.12970649     0.20700
C962        C  0.64657494  0.25481758  0.13997822    -0.39100
C963        C  0.63792424  0.27567000  0.13195164     0.19700
C964        C  0.62206127  0.27693135  0.11466953     0.22400
C965        C  0.61286352  0.25741652  0.10475991    -0.39600
C966        C  0.62115597  0.23658085  0.11310780     0.21200
N967        N  0.64308641  0.21347505  0.13430671    -0.32900
C968        C  0.62946352  0.20082762  0.12090897    -0.10500
C969        C  0.61547379  0.21461060  0.10752521    -0.29300
N970        N  0.61705672  0.29869751  0.10962508    -0.45900
C971        C  0.62943066  0.31139894  0.12410367    -0.05200
C972        C  0.64258283  0.29767931  0.13840315    -0.22500
H973        H  0.65919382  0.25384531  0.15328144     0.19300
H974        H  0.60012283  0.25838860  0.09157244     0.18100
H975        H  0.60295495  0.20925476  0.09528409     0.14400
H976        H  0.65420418  0.30309972  0.15147196     0.14200
H977        H  0.65485673  0.20752440  0.14621001     0.32400
H978        H  0.60563018  0.30458428  0.09733566     0.35100
C979        C  0.61877202  0.27049664  0.88044815     0.20700
C980        C  0.60945286  0.25046806  0.88945380    -0.39100
C981        C  0.61810874  0.23018500  0.88044695     0.19700
C982        C  0.63519985  0.22982000  0.86414886     0.22400
C983        C  0.64424010  0.24988653  0.85481111    -0.39600
C984        C  0.63514446  0.27022349  0.86342183     0.21200
N985        N  0.61333141  0.29192879  0.88611672    -0.32900
C986        C  0.62590383  0.30539891  0.87222604    -0.10500
C987        C  0.63967648  0.29254185  0.85776529    -0.29300
N988        N  0.64092116  0.20829978  0.85895917    -0.45900
C989        C  0.62697225  0.19500978  0.87169132    -0.05200
C990        C  0.61245132  0.20799099  0.88520203    -0.22500
H991        H  0.59632910  0.25066597  0.90243119     0.19300
H992        H  0.65727193  0.24968239  0.84174109     0.18100
H993        H  0.65157893  0.29871476  0.84508124     0.14400
H994        H  0.59977488  0.20195680  0.89718004     0.14200
H995        H  0.60148616  0.29710471  0.89836932     0.32400
H996        H  0.65325877  0.20296920  0.84728868     0.35100
C997        C  0.61794171  0.12709000  0.01793072     0.20700
C998        C  0.60459808  0.12562690  0.99830558    -0.39100
C999        C  0.61657828  0.12599130  0.97762639     0.19700
C1000       C  0.64004113  0.12762402  0.97656548     0.22400
C1001       C  0.65337526  0.12907928  0.99620196    -0.39600
C1002       C  0.64139999  0.12875579  0.01689046     0.21200
N1003       N  0.61066399  0.12723437  0.03961571    -0.32900
C1004       C  0.62962799  0.12901025  0.05247305    -0.10500
C1005       C  0.64913482  0.12998536  0.03891485    -0.29300
N1006       N  0.64731388  0.12769746  0.95485609    -0.45900
C1007       C  0.62832018  0.12614140  0.94203110    -0.05200
C1008       C  0.60882901  0.12504777  0.95562105    -0.22500
H1009       H  0.58625290  0.12436981  0.99907632     0.19300
H1010       H  0.67171029  0.13042241  0.99542904     0.18100
H1011       H  0.66658773  0.13145372  0.04443061     0.14400
H1012       H  0.59135065  0.12377461  0.95012096     0.14200
H1013       H  0.59385323  0.12620303  0.04530799     0.32400
H1014       H  0.66409973  0.12882913  0.94913396     0.35100
C1015       C  0.62384968  0.77099034  0.88476270     0.20700
C1016       C  0.61587493  0.75143681  0.89600582    -0.39100
C1017       C  0.62257190  0.73063188  0.88644830     0.19700
C1018       C  0.63568379  0.72943844  0.86685256     0.22400
C1019       C  0.64395643  0.74896899  0.85583575    -0.39600
C1020       C  0.63776604  0.76974036  0.86572702     0.21200
N1021       N  0.61996715  0.79277380  0.89043990    -0.32900
C1022       C  0.63194872  0.80537597  0.87522771    -0.10500
C1023       C  0.64334048  0.79167516  0.85960776    -0.29300
N1024       N  0.63922432  0.70769858  0.86086313    -0.45900
C1025       C  0.62869594  0.69495838  0.87701776    -0.05200
C1026       C  0.61820897  0.70861591  0.89333102    -0.22500
H1027       H  0.60536585  0.75235085  0.91114546     0.19300
H1028       H  0.65456259  0.74805317  0.84076449     0.18100
H1029       H  0.65392352  0.79707812  0.84547891     0.14400
H1030       H  0.60842460  0.70315546  0.90800312     0.14200
H1031       H  0.61009599  0.79872149  0.90399162     0.32400
H1032       H  0.64848590  0.70186201  0.84684246     0.35100
C1033       C  0.62009672  0.97953844  0.87569389     0.20700
C1034       C  0.60632444  0.99905771  0.87701261    -0.39100
C1035       C  0.61775641  0.01984863  0.87520762     0.19700
C1036       C  0.64111119  0.02108536  0.87238777     0.22400
C1037       C  0.65486888  0.00156963  0.87106513    -0.39600
C1038       C  0.64344294  0.98077673  0.87283293     0.21200
N1039       N  0.61335815  0.95777829  0.87665808    -0.32900
C1040       C  0.63254089  0.94506913  0.87435542    -0.10500
C1041       C  0.65166770  0.95880692  0.87200934    -0.29300
N1042       N  0.64785879  0.04283232  0.87120320    -0.45900
C1043       C  0.62866260  0.05552414  0.87324245    -0.05200
C1044       C  0.60952548  0.04181039  0.87572897    -0.22500
H1045       H  0.58806471  0.99812331  0.87920482     0.19300
H1046       H  0.67311495  0.00250875  0.86877516     0.18100
H1047       H  0.66917223  0.95344196  0.86979538     0.14400
H1048       H  0.59199929  0.04719477  0.87773614     0.14200
H1049       H  0.59671632  0.95193364  0.87866351     0.32400
H1050       H  0.66449856  0.04868122  0.86910093     0.35100
C1051       C  0.62150907  0.77651892  0.13738531     0.20700
C1052       C  0.61172315  0.75708470  0.14723740    -0.39100
C1053       C  0.61936418  0.73627113  0.13849050     0.19700
C1054       C  0.63505775  0.73499916  0.12087605     0.22400
C1055       C  0.64514157  0.75438526  0.11134890    -0.39600
C1056       C  0.63795804  0.77514187  0.12048571     0.21200
N1057       N  0.61672517  0.79831955  0.14216486    -0.32900
C1058       C  0.63058126  0.81076751  0.12852174    -0.10500
C1059       C  0.64420728  0.79698419  0.11490723    -0.29300
N1060       N  0.63896948  0.71331007  0.11510078    -0.45900
C1061       C  0.62613392  0.70070423  0.12953114    -0.05200
C1062       C  0.61368409  0.71432592  0.14441753    -0.22500
H1063       H  0.59909573  0.75809491  0.16066165     0.19300
H1064       H  0.65762529  0.75337960  0.09779212     0.18100
H1065       H  0.65634998  0.80227546  0.10205263     0.14400
H1066       H  0.60185470  0.70889500  0.15750642     0.14200
H1067       H  0.60476892  0.80438247  0.15387420     0.32400
H1068       H  0.64996887  0.70740018  0.10241128     0.35100
C1069       C  0.61632867  0.02615184  0.12661328     0.20700
C1070       C  0.60311538  0.00636816  0.12842077    -0.39100
C1071       C  0.61500752  0.98570933  0.12606935     0.19700
C1072       C  0.63827524  0.98487740  0.12240654     0.22400
C1073       C  0.65146342  0.00460036  0.12072985    -0.39600
C1074       C  0.63958659  0.02520118  0.12293969     0.21200
N1075       N  0.60910026  0.04788936  0.12753667    -0.32900
C1076       C  0.62792099  0.06080476  0.12440723    -0.10500
C1077       C  0.64724719  0.04723379  0.12158764    -0.29300
N1078       N  0.64557056  0.96327646  0.12070196    -0.45900
C1079       C  0.62683905  0.95017899  0.12320528    -0.05200
C1080       C  0.60741468  0.96354450  0.12658548    -0.22500
H1081       H  0.58491464  0.00701498  0.13120761     0.19300
H1082       H  0.66962914  0.00395654  0.11771263     0.18100
H1083       H  0.66453371  0.05276173  0.11857664     0.14400
H1084       H  0.59014877  0.95780647  0.12927969     0.14200
H1085       H  0.59239226  0.05358464  0.12995374     0.32400
H1086       H  0.66229738  0.95777666  0.11802841     0.35100
C1087       C  0.62226410  0.87487450  0.97894200     0.20700
C1088       C  0.60842641  0.87474417  0.99842157    -0.39100
C1089       C  0.61986558  0.87563432  0.01920656     0.19700
C1090       C  0.64333441  0.87657046  0.02051900     0.22400
C1091       C  0.65723081  0.87668948  0.00097347    -0.39600
C1092       C  0.64574764  0.87579643  0.98011469     0.21200
N1093       N  0.61538651  0.87444556  0.95725566    -0.32900
C1094       C  0.63455288  0.87512709  0.94440053    -0.10500
C1095       C  0.65391051  0.87591021  0.95802864    -0.29300
N1096       N  0.64996184  0.87749384  0.04233784    -0.45900
C1097       C  0.63056027  0.87718441  0.05494882    -0.05200
C1098       C  0.61145001  0.87599523  0.04110166    -0.22500
H1099       H  0.59006651  0.87411448  0.99744879     0.19300
H1100       H  0.67558166  0.87752453  0.00193664     0.18100
H1101       H  0.67148749  0.87667190  0.95253110     0.14400
H1102       H  0.59378453  0.87558624  0.04634643     0.14200
H1103       H  0.59859963  0.87384770  0.95153642     0.32400
H1104       H  0.66665280  0.87841293  0.04828381     0.35100
C1105       C  0.26939468  0.37932134  0.85552760     0.20700
C1106       C  0.24929389  0.38856731  0.84645406    -0.39100
C1107       C  0.22897158  0.37956527  0.85524627     0.19700
C1108       C  0.22875217  0.36221849  0.87130488     0.22400
C1109       C  0.24879310  0.35321181  0.88056308    -0.39600
C1110       C  0.26903292  0.36265327  0.87228359     0.21200
N1111       N  0.29090100  0.38543252  0.85068435    -0.32900
C1112       C  0.30412409  0.37293490  0.86491080    -0.10500
C1113       C  0.29114705  0.35858908  0.87862623    -0.29300
N1114       N  0.20735033  0.35671442  0.87703849    -0.45900
C1115       C  0.19383742  0.37104642  0.86502243    -0.05200
C1116       C  0.20663765  0.38556071  0.85120650    -0.22500
H1117       H  0.24945728  0.40210392  0.83389024     0.19300
H1118       H  0.24862055  0.34017434  0.89364570     0.18100
H1119       H  0.29713791  0.34677756  0.89149120     0.14400
H1120       H  0.20042713  0.39872202  0.83983961     0.14200
H1121       H  0.29622292  0.39776361  0.83896950     0.32400
H1122       H  0.20223812  0.34446894  0.88894638     0.35100
C1123       C  0.27205582  0.36718261  0.12842539     0.20700
C1124       C  0.25240131  0.35640663  0.13669460    -0.39100
C1125       C  0.23173423  0.36461687  0.12797240     0.19700
C1126       C  0.23072453  0.38256346  0.11263212     0.22400
C1127       C  0.25037561  0.39307983  0.10408135    -0.39600
C1128       C  0.27104809  0.38450807  0.11238320     0.21200
N1129       N  0.29375469  0.36247077  0.13390608    -0.32900
C1130       C  0.30659948  0.37654957  0.12086403    -0.10500
C1131       C  0.29309346  0.39048204  0.10716501    -0.29300
N1132       N  0.20904204  0.38770461  0.10757401    -0.45900
C1133       C  0.19618404  0.37264749  0.11943038    -0.05200
C1134       C  0.20968934  0.35786970  0.13225135    -0.22500
H1135       H  0.25315002  0.34259566  0.14893342     0.19300
H1136       H  0.24962738  0.40684699  0.09179125     0.18100
H1137       H  0.29867944  0.40337100  0.09518717     0.14400
H1138       H  0.20408979  0.34443267  0.14359790     0.14200
H1139       H  0.29950989  0.35013566  0.14540143     0.32400
H1140       H  0.20332108  0.40055789  0.09663901     0.35100
C1141       C  0.12470850  0.38401790  0.01469719     0.20700
C1142       C  0.12277655  0.39712508  0.99475274    -0.39100
C1143       C  0.12433577  0.38503279  0.97432131     0.19700
C1144       C  0.12740503  0.36167794  0.97383233     0.22400
C1145       C  0.12933569  0.34859541  0.99375345    -0.39600
C1146       C  0.12788667  0.36068203  0.01415741     0.21200
N1147       N  0.12387162  0.39139624  0.03625696    -0.32900
C1148       C  0.12649965  0.37259804  0.04949396    -0.10500
C1149       C  0.12906923  0.35313017  0.03632556    -0.29300
N1150       N  0.12825599  0.35421187  0.95232718    -0.45900
C1151       C  0.12585766  0.37295337  0.93900976    -0.05200
C1152       C  0.12336923  0.39251734  0.95209024    -0.22500
H1153       H  0.12030817  0.41537195  0.99511471     0.19300
H1154       H  0.13180902  0.33034990  0.99339097     0.18100
H1155       H  0.13147435  0.33580292  0.04219240     0.14400
H1156       H  0.12102954  0.40982308  0.94613086     0.14200
H1157       H  0.12155824  0.40815233  0.04163138     0.32400
H1158       H  0.13040727  0.33740590  0.94703493     0.35100
C1159       C  0.76942013  0.38399874  0.86530448     0.20700
C1160       C  0.74963627  0.39179322  0.85442367    -0.39100
C1161       C  0.72905234  0.38454804  0.86415489     0.19700
C1162       C  0.72827589  0.37108739  0.88356364     0.22400
C1163       C  0.74803963  0.36303704  0.89421707    -0.39600
C1164       C  0.76859453  0.36977752  0.88416202     0.21200
N1165       N  0.79107541  0.38825356  0.85933879    -0.32900
C1166       C  0.80401290  0.37623964  0.87421420    -0.10500
C1167       C  0.79066840  0.36440983  0.88987013    -0.29300
N1168       N  0.70668068  0.36669141  0.88957903    -0.45900
C1169       C  0.69362252  0.37700032  0.87362489    -0.05200
C1170       C  0.70691809  0.38827985  0.85743360    -0.22500
H1171       H  0.75023086  0.40247005  0.83936629     0.19300
H1172       H  0.74744850  0.35209805  0.90908312     0.18100
H1173       H  0.79637782  0.35363322  0.90372351     0.14400
H1174       H  0.70114656  0.39794930  0.84281529     0.14200
H1175       H  0.79673316  0.39834256  0.84578668     0.32400
H1176       H  0.70115782  0.35684767  0.90337700     0.35100
C1177       C  0.97811598  0.36296345  0.86976651     0.20700
C1178       C  0.99763575  0.34913996  0.86889416    -0.39100
C1179       C  0.01845766  0.36057315  0.86996940     0.19700
C1180       C  0.01971567  0.38399553  0.87168785     0.22400
C1181       C  0.00019322  0.39783560  0.87245152    -0.39600
C1182       C  0.97936687  0.38639263  0.87142875     0.21200
N1183       N  0.95635245  0.35619510  0.86945195    -0.32900
C1184       C  0.94363083  0.37543105  0.87087645    -0.10500
C1185       C  0.95737539  0.39463934  0.87208778    -0.29300
N1186       N  0.04148585  0.39070438  0.87245615    -0.45900
C1187       C  0.05420036  0.37143833  0.87122833    -0.05200
C1188       C  0.04043794  0.35227645  0.86967111    -0.22500
H1189       H  0.99667361  0.33082185  0.86760699     0.19300
H1190       H  0.00115224  0.41614574  0.87385035     0.18100
H1191       H  0.95199922  0.41220633  0.87352425     0.14400
H1192       H  0.04579516  0.33469697  0.86832760     0.14200
H1193       H  0.95049839  0.33946442  0.86842299     0.32400
H1194       H  0.04735175  0.40742182  0.87365439     0.35100
C1195       C  0.77239283  0.39314216  0.12966700     0.20700
C1196       C  0.75255543  0.40212533  0.13970082    -0.39100
C1197       C  0.73193585  0.39374036  0.13126592     0.19700
C1198       C  0.73120737  0.37811643  0.11377395     0.22400
C1199       C  0.75097897  0.36889140  0.10405606    -0.39600
C1200       C  0.77151147  0.37679604  0.11286452     0.21200
N1201       N  0.79411191  0.39771628  0.13500512    -0.32900
C1202       C  0.80695817  0.38372161  0.12187518    -0.10500
C1203       C  0.79350533  0.37042920  0.10790919    -0.29300
N1204       N  0.70964253  0.37290558  0.10868191    -0.45900
C1205       C  0.69649493  0.38484130  0.12337124    -0.05200
C1206       C  0.70973230  0.39801497  0.13779623    -0.22500
H1207       H  0.75313388  0.41440540  0.15330454     0.19300
H1208       H  0.75041168  0.35617250  0.09086261     0.18100
H1209       H  0.79910791  0.35775994  0.09581408     0.14400
H1210       H  0.70388179  0.40921202  0.15116265     0.14200
H1211       H  0.79983113  0.40905649  0.14729184     0.32400
H1212       H  0.70419270  0.36144680  0.09638819     0.35100
C1213       C  0.98095311  0.38552170  0.12000631     0.20700
C1214       C  0.00074432  0.39852860  0.11803744    -0.39100
C1215       C  0.02121286  0.38639494  0.11963717     0.19700
C1216       C  0.02193672  0.36306322  0.12289956     0.22400
C1217       C  0.00209263  0.35003703  0.12501185    -0.39600
C1218       C  0.98156247  0.36220269  0.12339901     0.21200
N1219       N  0.95944931  0.39311274  0.11909778    -0.32900
C1220       C  0.94619851  0.37455733  0.12200553    -0.10500
C1221       C  0.95933924  0.35489194  0.12466890    -0.29300
N1222       N  0.04355361  0.35557815  0.12335335    -0.45900
C1223       C  0.05659768  0.37431230  0.12040092    -0.05200
C1224       C  0.04328619  0.39385853  0.11813547    -0.22500
H1225       H  0.00023331  0.41675305  0.11536807     0.19300
H1226       H  0.00260411  0.33180300  0.12760099     0.18100
H1227       H  0.95344311  0.33767740  0.12734676     0.14400
H1228       H  0.04899559  0.41114262  0.11548619     0.14200
H1229       H  0.95411287  0.40994016  0.11673158     0.32400
H1230       H  0.04908878  0.33878859  0.12550595     0.35100
C1231       C  0.87701515  0.36706757  0.97726830     0.20700
C1232       C  0.87804641  0.35383200  0.99717472    -0.39100
C1233       C  0.87789056  0.36596616  0.01760323     0.19700
C1234       C  0.87685209  0.38948019  0.01814886     0.22400
C1235       C  0.87582999  0.40271784  0.99822094    -0.39600
C1236       C  0.87594236  0.39058016  0.97777444     0.21200
N1237       N  0.87675692  0.35959607  0.95576348    -0.32900
C1238       C  0.87551732  0.37846374  0.94244827    -0.10500
C1239       C  0.87497923  0.39814724  0.95554712    -0.29300
N1240       N  0.87660459  0.39690355  0.03970591    -0.45900
C1241       C  0.87736937  0.37797205  0.05296703    -0.05200
C1242       C  0.87826768  0.35834340  0.03979587    -0.22500
H1243       H  0.87877285  0.33544445  0.99678336     0.19300
H1244       H  0.87488988  0.42109424  0.99861468     0.18100
H1245       H  0.87396384  0.41558481  0.94961696     0.14400
H1246       H  0.87889199  0.34086894  0.04567336     0.14200
H1247       H  0.87736526  0.34269926  0.95047545     0.32400
H1248       H  0.87571828  0.41375771  0.04505655     0.35100
C1249       C  0.36554659  0.77432245  0.13692732     0.20700
C1250       C  0.35479311  0.75448050  0.14479292    -0.39100
C1251       C  0.36408340  0.73392143  0.13691251     0.19700
C1252       C  0.38231644  0.73325719  0.12191335     0.22400
C1253       C  0.39335040  0.75304692  0.11445300    -0.39600
C1254       C  0.38439308  0.77353868  0.12272353     0.21200
N1255       N  0.35982687  0.79597745  0.14158435    -0.32900
C1256       C  0.37544872  0.80896793  0.13062769    -0.10500
C1257       C  0.39111378  0.79560716  0.11880497    -0.29300
N1258       N  0.38754040  0.71171054  0.11643631    -0.45900
C1259       C  0.37291974  0.69853153  0.12846101    -0.05200
C1260       C  0.35806093  0.71170710  0.14150783    -0.22500
H1261       H  0.34029419  0.75500878  0.15620030     0.19300
H1262       H  0.40784884  0.75252607  0.10304357     0.18100
H1263       H  0.40517067  0.80132361  0.10831347     0.14400
H1264       H  0.34455707  0.70581777  0.15261379     0.14200
H1265       H  0.34628009  0.80158134  0.15168632     0.32400
H1266       H  0.40055328  0.70624820  0.10557355     0.35100
C1267       C  0.36603826  0.76967011  0.88732874     0.20700
C1268       C  0.35501153  0.74977440  0.89462618    -0.39100
C1269       C  0.36566652  0.72926856  0.88851338     0.19700
C1270       C  0.38548542  0.72870573  0.87568022     0.22400
C1271       C  0.39672083  0.74857622  0.86879067    -0.39600
C1272       C  0.38633001  0.76903999  0.87528285     0.21200
N1273       N  0.35915036  0.79125391  0.89043923    -0.32900
C1274       C  0.37535763  0.80439670  0.88059747    -0.10500
C1275       C  0.39268693  0.79119064  0.87113883    -0.29300
N1276       N  0.39171936  0.70718215  0.87127603    -0.45900
C1277       C  0.37608172  0.69393491  0.88179501    -0.05200
C1278       C  0.35958140  0.70701810  0.89283454    -0.22500
H1279       H  0.33926396  0.75023058  0.90423486     0.19300
H1280       H  0.41233902  0.74812996  0.85897361     0.18100
H1281       H  0.40760092  0.79701570  0.86199119     0.14400
H1282       H  0.34488030  0.70105080  0.90223500     0.14200
H1283       H  0.34441599  0.79672616  0.89880130     0.32400
H1284       H  0.40584723  0.70178486  0.86186519     0.35100
C1285       C  0.38470409  0.87469470  0.98355194     0.20700
C1286       C  0.39828152  0.87455434  0.00309184    -0.39100
C1287       C  0.38648532  0.87566012  0.02385233     0.19700
C1288       C  0.36298225  0.87679817  0.02504921     0.22400
C1289       C  0.34942032  0.87697638  0.00550854    -0.39600
C1290       C  0.36120486  0.87586203  0.98475700     0.21200
N1291       N  0.39175561  0.87386372  0.96180901    -0.32900
C1292       C  0.37259803  0.87450410  0.94910637    -0.10500
C1293       C  0.35320457  0.87573766  0.96280410    -0.29300
N1294       N  0.35589165  0.87759944  0.04678588    -0.45900
C1295       C  0.37501867  0.87698781  0.05951843    -0.05200
C1296       C  0.39444420  0.87581248  0.04582457    -0.22500
H1297       H  0.41665445  0.87364891  0.00219747     0.19300
H1298       H  0.33104960  0.87789712  0.00639757     0.18100
H1299       H  0.33564872  0.87655261  0.95741444     0.14400
H1300       H  0.41199915  0.87509528  0.05123209     0.14200
H1301       H  0.40854826  0.87297679  0.95597469     0.32400
H1302       H  0.33909083  0.87852870  0.05259506     0.35100
C1303       C  0.38150565  0.22859755  0.86270398     0.20700
C1304       C  0.39037992  0.24807902  0.85195442    -0.39100
C1305       C  0.38168471  0.26899426  0.85962242     0.19700
C1306       C  0.36578403  0.27035054  0.87702557     0.22400
C1307       C  0.35659513  0.25091333  0.88743238    -0.39600
C1308       C  0.36490341  0.23004132  0.87943038     0.21200
N1309       N  0.38683857  0.20671717  0.85852246    -0.32900
C1310       C  0.37312800  0.19422830  0.87232981    -0.10500
C1311       C  0.35917811  0.20815890  0.88554239    -0.29300
N1312       N  0.36093722  0.29213371  0.88186379    -0.45900
C1313       C  0.37347150  0.30477097  0.86714883    -0.05200
C1314       C  0.38653621  0.29099299  0.85287638    -0.22500
H1315       H  0.40307331  0.24703307  0.83859898     0.19300
H1316       H  0.34387060  0.25196451  0.90076081     0.18100
H1317       H  0.34661617  0.20293653  0.89801588     0.14400
H1318       H  0.39842887  0.29636985  0.83982580     0.14200
H1319       H  0.39861298  0.20063555  0.84663995     0.32400
H1320       H  0.34972239  0.29807219  0.89433301     0.35100
C1321       C  0.38012262  0.01965963  0.87939181     0.20700
C1322       C  0.39361240  0.99995548  0.87993752    -0.39100
C1323       C  0.38176933  0.97938780  0.88011127     0.19700
C1324       C  0.35825274  0.97843028  0.87986857     0.22400
C1325       C  0.34471185  0.99819751  0.87946722    -0.39600
C1326       C  0.35659692  0.01885443  0.87917611     0.21200
N1327       N  0.38738040  0.04122747  0.87849630    -0.32900
C1328       C  0.36840352  0.05436855  0.87765696    -0.10500
C1329       C  0.34881511  0.04103748  0.87811632    -0.29300
N1330       N  0.35122727  0.95671217  0.87959923    -0.45900
C1331       C  0.37046042  0.94387332  0.87963023    -0.05200
C1332       C  0.38980927  0.95741203  0.88001690    -0.22500
H1333       H  0.41200497  0.00059313  0.87991563     0.19300
H1334       H  0.32632820  0.99754049  0.87909768     0.18100
H1335       H  0.33130824  0.04678175  0.87752246     0.14400
H1336       H  0.40740474  0.95189730  0.88001069     0.14200
H1337       H  0.40427055  0.04667309  0.87827623     0.32400
H1338       H  0.33442142  0.95098354  0.87925794     0.35100
C1339       C  0.37160583  0.23245547  0.11441190     0.20700
C1340       C  0.36367784  0.25211857  0.10335295    -0.39100
C1341       C  0.37136134  0.27271254  0.11223110     0.19700
C1342       C  0.38541082  0.27364768  0.13102493     0.22400
C1343       C  0.39365787  0.25396138  0.14184064    -0.39600
C1344       C  0.38640473  0.23335187  0.13262743     0.21200
N1345       N  0.36675796  0.21083692  0.10930477    -0.32900
C1346       C  0.37900470  0.19795735  0.12400793    -0.10500
C1347       C  0.39151191  0.21129039  0.13880141    -0.29300
N1348       N  0.38949934  0.29530875  0.13669016    -0.45900
C1349       C  0.37830221  0.30818388  0.12113639    -0.05200
C1350       C  0.36693184  0.29474722  0.10550422    -0.22500
H1351       H  0.35238300  0.25143094  0.08890755     0.19300
H1352       H  0.40490031  0.25464187  0.15632571     0.18100
H1353       H  0.40249060  0.20559264  0.15243560     0.14400
H1354       H  0.35638483  0.30037337  0.09150413     0.14200
H1355       H  0.35607438  0.20514947  0.09641866     0.32400
H1356       H  0.39938145  0.30100422  0.15020134     0.35100
C1357       C  0.38580413  0.02405919  0.12749293     0.20700
C1358       C  0.39902721  0.00424337  0.12892236    -0.39100
C1359       C  0.38698840  0.98382503  0.12853162     0.19700
C1360       C  0.36352187  0.98313602  0.12693072     0.22400
C1361       C  0.35022057  0.00301533  0.12561024    -0.39600
C1362       C  0.36232108  0.02351517  0.12594562     0.21200
N1363       N  0.39332357  0.04552539  0.12732994    -0.32900
C1364       C  0.37454159  0.05883666  0.12576031    -0.10500
C1365       C  0.35482501  0.04576227  0.12485015    -0.29300
N1366       N  0.35629603  0.96151650  0.12657999    -0.45900
C1367       C  0.37534938  0.94847155  0.12788092    -0.05200
C1368       C  0.39479457  0.96176803  0.12919849    -0.22500
H1369       H  0.41737998  0.00469650  0.13009462     0.19300
H1370       H  0.33187686  0.00255164  0.12429242     0.18100
H1371       H  0.33742938  0.05172681  0.12354436     0.14400
H1372       H  0.41228191  0.95605659  0.13038727     0.14200
H1373       H  0.41022883  0.05080051  0.12833258     0.32400
H1374       H  0.33949061  0.95598144  0.12539894     0.35100
C1375       C  0.38582677  0.12836691  0.97844946     0.20700
C1376       C  0.39985184  0.12870565  0.99771897    -0.39100
C1377       C  0.38850469  0.12931379  0.01879619     0.19700
C1378       C  0.36501396  0.12969764  0.02045204     0.22400
C1379       C  0.35102539  0.12948697  0.00121740    -0.39600
C1380       C  0.36234505  0.12873026  0.98020332     0.21200
N1381       N  0.39236423  0.12725758  0.95653165    -0.32900
C1382       C  0.37288545  0.12687468  0.94429433    -0.10500
C1383       C  0.35381789  0.12779162  0.95847010    -0.29300
N1384       N  0.35832535  0.12967267  0.04231342    -0.45900
C1385       C  0.37764009  0.12917932  0.05477571    -0.05200
C1386       C  0.39686689  0.12904795  0.04070735    -0.22500
H1387       H  0.41821291  0.12821713  0.99640577     0.19300
H1388       H  0.33265929  0.12958578  0.00253551     0.18100
H1389       H  0.33611407  0.12767347  0.95353675     0.14400
H1390       H  0.41451719  0.12852719  0.04581127     0.14200
H1391       H  0.40899795  0.12668478  0.95030341     0.32400
H1392       H  0.34161106  0.12973984  0.04838516     0.35100
C1393       C  0.87103246  0.97325247  0.63023055     0.20700
C1394       C  0.87054150  0.99295307  0.64346781    -0.39100
C1395       C  0.86985995  0.01350054  0.63133743     0.19700
C1396       C  0.86982790  0.01441138  0.60780558     0.22400
C1397       C  0.87041190  0.99465029  0.59453361    -0.39600
C1398       C  0.87093762  0.97402735  0.60669342     0.21200
N1399       N  0.87141796  0.95169221  0.63776360    -0.32900
C1400       C  0.87153562  0.93855609  0.61893942    -0.10500
C1401       C  0.87124725  0.95184566  0.59917951    -0.29300
N1402       N  0.86897861  0.03609566  0.60043842    -0.45900
C1403       C  0.86839573  0.04898535  0.61946248    -0.05200
C1404       C  0.86895933  0.03549526  0.63903801    -0.22500
H1405       H  0.87052313  0.99231801  0.66186834     0.19300
H1406       H  0.87029898  0.99528281  0.57613806     0.18100
H1407       H  0.87123574  0.94607151  0.58174618     0.14400
H1408       H  0.86879160  0.04105231  0.65654790     0.14200
H1409       H  0.87153993  0.94625034  0.65469865     0.32400
H1410       H  0.86883871  0.04175573  0.58359289     0.35100
C1411       C  0.01465340  0.12081254  0.61172560     0.20700
C1412       C  0.99526668  0.12247021  0.59798310    -0.39100
C1413       C  0.97436051  0.11984004  0.60928020     0.19700
C1414       C  0.97291276  0.11597286  0.63249403     0.22400
C1415       C  0.99227968  0.11435486  0.64623116    -0.39600
C1416       C  0.01316533  0.11693418  0.63493513     0.21200
N1417       N  0.03648800  0.12245383  0.60509484    -0.32900
C1418       C  0.04896081  0.11963506  0.62422969    -0.10500
C1419       C  0.03501844  0.11620013  0.64319645    -0.29300
N1420       N  0.95111475  0.11435801  0.63918248    -0.45900
C1421       C  0.93856520  0.11718277  0.62010546    -0.05200
C1422       C  0.95245133  0.12058341  0.60107778    -0.22500
H1423       H  0.99638160  0.12555057  0.57984517     0.19300
H1424       H  0.99116385  0.11131780  0.66437689     0.18100
H1425       H  0.04019161  0.11334796  0.66062500     0.14400
H1426       H  0.94721014  0.12354513  0.58368868     0.14200
H1427       H  0.04253383  0.12529406  0.58857898     0.32400
H1428       H  0.94513566  0.11165961  0.65574238     0.35100
C1429       C  0.97789382  0.86810332  0.61263005     0.20700
C1430       C  0.99790724  0.86685912  0.59957256    -0.39100
C1431       C  0.01827764  0.86736578  0.61185164     0.19700
C1432       C  0.01865767  0.86891357  0.63533000     0.22400
C1433       C  0.99865435  0.87012062  0.64837826    -0.39600
C1434       C  0.97830112  0.86966960  0.63610544     0.21200
N1435       N  0.95638585  0.86804950  0.60505592    -0.32900
C1436       C  0.94302954  0.86957312  0.62385183    -0.10500
C1437       C  0.95607617  0.87061297  0.64354040    -0.29300
N1438       N  0.04014259  0.86935316  0.64292276    -0.45900
C1439       C  0.05355707  0.86815870  0.62415286    -0.05200
C1440       C  0.04054422  0.86685086  0.60443795    -0.22500
H1441       H  0.99763765  0.86570080  0.58121514     0.19300
H1442       H  0.99892190  0.87141608  0.66672524     0.18100
H1443       H  0.95009503  0.87183667  0.66093162     0.14400
H1444       H  0.04656710  0.86586591  0.58704452     0.14200
H1445       H  0.95111394  0.86693454  0.58814604     0.32400
H1446       H  0.04535917  0.87062005  0.65982805     0.35100
C1447       C  0.12043378  0.97424775  0.63691732     0.20700
C1448       C  0.11897243  0.99369690  0.65059136    -0.39100
C1449       C  0.11939203  0.01458759  0.63893570     0.19700
C1450       C  0.12108502  0.01590394  0.61547438     0.22400
C1451       C  0.12260701  0.99647724  0.60182921    -0.39600
C1452       C  0.12220336  0.97561204  0.61346688     0.21200
N1453       N  0.12024035  0.95244606  0.64382467    -0.32900
C1454       C  0.12184106  0.93982958  0.62465432    -0.10500
C1455       C  0.12316336  0.95367786  0.60535340    -0.29300
N1456       N  0.12112495  0.03765390  0.60846787    -0.45900
C1457       C  0.11955572  0.05035034  0.62755699    -0.05200
C1458       C  0.11841749  0.03658248  0.64695722    -0.22500
H1459       H  0.11759415  0.99263157  0.66892915     0.19300
H1460       H  0.12396384  0.99754338  0.58349073     0.18100
H1461       H  0.12457815  0.94841633  0.58780133     0.14400
H1462       H  0.11707794  0.04193093  0.66448902     0.14200
H1463       H  0.11900928  0.94650764  0.66057266     0.32400
H1464       H  0.12228471  0.04351411  0.59168385     0.35100
C1465       C  0.61763688  0.87425961  0.22894460     0.20700
C1466       C  0.60787571  0.86437223  0.24841099    -0.39100
C1467       C  0.61573767  0.87258711  0.26922337     0.19700
C1468       C  0.63173690  0.88970497  0.27054995     0.22400
C1469       C  0.64185437  0.89927495  0.25106063    -0.39600
C1470       C  0.63432881  0.89071165  0.23022204     0.21200
N1471       N  0.61307272  0.86935839  0.20720136    -0.32900
C1472       C  0.62728623  0.88239850  0.19456102    -0.10500
C1473       C  0.64091613  0.89588614  0.20824812    -0.29300
N1474       N  0.63611877  0.89466855  0.29235516    -0.45900
C1475       C  0.62318722  0.88025517  0.30492061    -0.05200
C1476       C  0.61030991  0.86616276  0.29113720    -0.22500
H1477       H  0.59521650  0.85113689  0.24741920     0.19300
H1478       H  0.65473995  0.91228790  0.25205634     0.18100
H1479       H  0.65366146  0.90800112  0.20283034     0.14400
H1480       H  0.59859477  0.85300851  0.29645980     0.14200
H1481       H  0.60131747  0.85754020  0.20128713     0.32400
H1482       H  0.64767195  0.90661825  0.29834180     0.35100
C1483       C  0.63436158  0.86264771  0.72892545     0.20700
C1484       C  0.64716864  0.85714033  0.74829567    -0.39100
C1485       C  0.63824926  0.86485639  0.76905812     0.19700
C1486       C  0.61787870  0.87671167  0.77044085     0.22400
C1487       C  0.60531245  0.88261622  0.75103291    -0.39600
C1488       C  0.61447883  0.87532542  0.73023178     0.21200
N1489       N  0.63934906  0.85759878  0.70720213    -0.32900
C1490       C  0.62281091  0.86755975  0.69459852    -0.10500
C1491       C  0.60704568  0.87888519  0.70829166    -0.29300
N1492       N  0.61276624  0.88157491  0.79217439    -0.45900
C1493       C  0.63021722  0.87317330  0.80468095    -0.05200
C1494       C  0.64650880  0.86270007  0.79087662    -0.22500
H1495       H  0.66298134  0.84768152  0.74725673     0.19300
H1496       H  0.58964567  0.89231854  0.75204523     0.18100
H1497       H  0.59226187  0.88850775  0.70289051     0.14400
H1498       H  0.66203989  0.85427365  0.79615277     0.14200
H1499       H  0.65352833  0.84863286  0.70122464     0.32400
H1500       H  0.59839676  0.89025681  0.79813764     0.35100
C1501       C  0.72766406  0.86047845  0.61712033     0.20700
C1502       C  0.74730692  0.84953879  0.60899226    -0.39100
C1503       C  0.76796176  0.85938046  0.61524882     0.19700
C1504       C  0.76895782  0.87838688  0.62897131     0.22400
C1505       C  0.74928653  0.88963230  0.63669870    -0.39600
C1506       C  0.72860474  0.88002477  0.63006966     0.21200
N1507       N  0.70603426  0.85420389  0.61389436    -0.32900
C1508       C  0.69309700  0.87006752  0.62450876    -0.10500
C1509       C  0.70650647  0.88656915  0.63467858    -0.29300
N1510       N  0.79065518  0.88380642  0.63327529    -0.45900
C1511       C  0.80348611  0.86843636  0.62181053    -0.05200
C1512       C  0.79000256  0.85300340  0.61024608    -0.22500
H1513       H  0.74655752  0.83441295  0.59865255     0.19300
H1514       H  0.75003298  0.90465618  0.64718650     0.18100
H1515       H  0.70085141  0.90107759  0.64446875     0.14400
H1516       H  0.79558896  0.83877009  0.60002722     0.14200
H1517       H  0.70038468  0.84011205  0.60484257     0.32400
H1518       H  0.79642053  0.89724695  0.64318193     0.35100
C1519       C  0.62716538  0.85919622  0.51987214     0.20700
C1520       C  0.62779483  0.84664466  0.49964629    -0.39100
C1521       C  0.62795781  0.85951665  0.47944727     0.19700
C1522       C  0.62759686  0.88305991  0.47942737     0.22400
C1523       C  0.62706146  0.89558536  0.49961499    -0.39600
C1524       C  0.62682729  0.88273664  0.51976998     0.21200
N1525       N  0.62641837  0.85106702  0.54130387    -0.32900
C1526       C  0.62555877  0.86961425  0.55487287    -0.10500
C1527       C  0.62584975  0.88963803  0.54204990    -0.29300
N1528       N  0.62723869  0.89129347  0.45807507    -0.45900
C1529       C  0.62727682  0.87287099  0.44436738    -0.05200
C1530       C  0.62783653  0.85273557  0.45705777    -0.22500
H1531       H  0.62786930  0.82824184  0.49962807     0.19300
H1532       H  0.62658274  0.91398574  0.49962737     0.18100
H1533       H  0.62526171  0.90692871  0.54821690     0.14400
H1534       H  0.62778250  0.83549192  0.45075250     0.14200
H1535       H  0.62637866  0.83401935  0.54636575     0.32400
H1536       H  0.62667656  0.90837805  0.45314669     0.35100
C1537       C  0.26864630  0.88128576  0.63457953     0.20700
C1538       C  0.24849682  0.89043876  0.64367666    -0.39100
C1539       C  0.22824948  0.88161188  0.63496825     0.19700
C1540       C  0.22809222  0.86541684  0.61798650     0.22400
C1541       C  0.24822825  0.85600608  0.60913278    -0.39600
C1542       C  0.26846011  0.86435945  0.61832424     0.21200
N1543       N  0.29008298  0.88648992  0.64030351    -0.32900
C1544       C  0.30356241  0.87238875  0.62799841    -0.10500
C1545       C  0.29073815  0.85828157  0.61415886    -0.29300
N1546       N  0.20666657  0.85997381  0.61251467    -0.45900
C1547       C  0.19314473  0.87233147  0.62654519    -0.05200
C1548       C  0.20593038  0.88602421  0.64080537    -0.22500
H1549       H  0.24857927  0.90322304  0.65682288     0.19300
H1550       H  0.24813976  0.84289960  0.59630405     0.18100
H1551       H  0.29692618  0.84546887  0.60249744     0.14400
H1552       H  0.19971119  0.89769849  0.65358688     0.14200
H1553       H  0.29523207  0.89851189  0.65220028     0.32400
H1554       H  0.20153705  0.84817019  0.60040909     0.35100
C1555       C  0.38329405  0.87648152  0.73347409     0.20700
C1556       C  0.39415703  0.88442796  0.75303920    -0.39100
C1557       C  0.38376048  0.87863002  0.77378906     0.19700
C1558       C  0.36383757  0.86623300  0.77494139     0.22400
C1559       C  0.35322794  0.85789974  0.75539059    -0.39600
C1560       C  0.36385709  0.86333364  0.73464677     0.21200
N1561       N  0.38936962  0.88026628  0.71172336    -0.32900
C1562       C  0.37396595  0.86906954  0.69900383    -0.10500
C1563       C  0.35786495  0.85817373  0.71264003    -0.29300
N1564       N  0.35707977  0.86348473  0.79665558    -0.45900
C1565       C  0.37305415  0.87382304  0.80941064    -0.05200
C1566       C  0.39000678  0.88340414  0.79578109    -0.22500
H1567       H  0.40951114  0.89446171  0.75216584     0.19300
H1568       H  0.33779260  0.84799343  0.75626182     0.18100
H1569       H  0.34330667  0.84851714  0.70715055     0.14400
H1570       H  0.40482706  0.89267625  0.80124695     0.14200
H1571       H  0.40309407  0.88989792  0.70585257     0.32400
H1572       H  0.34276533  0.85470506  0.80248046     0.35100
C1573       C  0.47761812  0.85723771  0.62713601     0.20700
C1574       C  0.49716222  0.84349735  0.62527609    -0.39100
C1575       C  0.51797847  0.85505580  0.62558183     0.19700
C1576       C  0.51912791  0.87846088  0.62761414     0.22400
C1577       C  0.49964366  0.89214406  0.62955663    -0.39600
C1578       C  0.47889354  0.88063109  0.62916990     0.21200
N1579       N  0.45581291  0.85052730  0.62689617    -0.32900
C1580       C  0.44319508  0.86982464  0.62867797    -0.10500
C1581       C  0.45699249  0.88892752  0.63018565    -0.29300
N1582       N  0.54079330  0.88541862  0.62731043    -0.45900
C1583       C  0.55362673  0.86635455  0.62512892    -0.05200
C1584       C  0.54003327  0.84701610  0.62401232    -0.22500
H1585       H  0.49622418  0.82521518  0.62357699     0.19300
H1586       H  0.50057640  0.91044418  0.63107831     0.18100
H1587       H  0.45170263  0.90651646  0.63166914     0.14400
H1588       H  0.54553491  0.82951519  0.62229115     0.14200
H1589       H  0.44988944  0.83391782  0.62538085     0.32400
H1590       H  0.54650419  0.90212998  0.62864527     0.35100
C1591       C  0.36729025  0.89086318  0.23346044     0.20700
C1592       C  0.35596897  0.89873749  0.25300991    -0.39100
C1593       C  0.36681867  0.89408484  0.27375451     0.19700
C1594       C  0.38715771  0.88213797  0.27488327     0.22400
C1595       C  0.39867970  0.87469640  0.25534281    -0.39600
C1596       C  0.38802924  0.87965734  0.23462732     0.21200
N1597       N  0.36026531  0.89247166  0.21178626    -0.32900
C1598       C  0.37681807  0.88249089  0.19910843    -0.10500
C1599       C  0.39448884  0.87446434  0.21272227    -0.29300
N1600       N  0.39317434  0.87847756  0.29659362    -0.45900
C1601       C  0.37679715  0.88850600  0.30937784    -0.05200
C1602       C  0.36012569  0.89858892  0.29581566    -0.22500
H1603       H  0.33976481  0.90751857  0.25215719     0.19300
H1604       H  0.41459720  0.86540473  0.25622655     0.18100
H1605       H  0.40977278  0.86563214  0.20733425     0.14400
H1606       H  0.34469931  0.90706006  0.30137340     0.14200
H1607       H  0.34524066  0.90001676  0.20595066     0.32400
H1608       H  0.40736475  0.86944745  0.30240543     0.35100
C1609       C  0.47880730  0.87101589  0.37882519     0.20700
C1610       C  0.49819578  0.85708042  0.37762492    -0.39100
C1611       C  0.51907684  0.86841277  0.37783999     0.19700
C1612       C  0.52056008  0.89185405  0.37907701     0.22400
C1613       C  0.50112458  0.90581904  0.38029206    -0.39600
C1614       C  0.48019355  0.89446112  0.38013119     0.21200
N1615       N  0.45703611  0.86433474  0.37880002    -0.32900
C1616       C  0.44439232  0.88362309  0.38010389    -0.10500
C1617       C  0.45821557  0.90280617  0.38096829    -0.29300
N1618       N  0.54242289  0.89842181  0.37874979    -0.45900
C1619       C  0.55489907  0.87900598  0.37730429    -0.05200
C1620       C  0.54092596  0.85994673  0.37675968    -0.22500
H1621       H  0.49709628  0.83875491  0.37654982     0.19300
H1622       H  0.50221862  0.92415166  0.38122908     0.18100
H1623       H  0.45290581  0.92042538  0.38194648     0.14400
H1624       H  0.54606879  0.84229099  0.37557383     0.14200
H1625       H  0.45113643  0.84765009  0.37780977     0.32400
H1626       H  0.54847853  0.91507363  0.37939510     0.35100
C1627       C  0.37224902  0.88800918  0.48385576     0.20700
C1628       C  0.37241812  0.90048128  0.50408407    -0.39100
C1629       C  0.37203739  0.88759531  0.52420961     0.19700
C1630       C  0.37152122  0.86406498  0.52421385     0.22400
C1631       C  0.37131259  0.85156520  0.50394555    -0.39600
C1632       C  0.37171452  0.86447777  0.48377480     0.21200
N1633       N  0.37273902  0.89630999  0.46254474    -0.32900
C1634       C  0.37251951  0.87797794  0.44872400    -0.10500
C1635       C  0.37187881  0.85778138  0.46132882    -0.29300
N1636       N  0.37160791  0.85587032  0.54561272    -0.45900
C1637       C  0.37223394  0.87433069  0.55928437    -0.05200
C1638       C  0.37242778  0.89441763  0.54654755    -0.22500
H1639       H  0.37294488  0.91887414  0.50414296     0.19300
H1640       H  0.37100151  0.83316684  0.50388744     0.18100
H1641       H  0.37167044  0.84057183  0.45493860     0.14400
H1642       H  0.37301181  0.91167002  0.55279492     0.14200
H1643       H  0.37327746  0.91343815  0.45769590     0.32400
H1644       H  0.37139658  0.83877663  0.55060753     0.35100
C1645       C  0.86576427  0.37876442  0.72695316     0.20700
C1646       C  0.85893559  0.39102459  0.74622659    -0.39100
C1647       C  0.86489748  0.38130712  0.76722308     0.19700
C1648       C  0.87638184  0.36073868  0.76888818     0.22400
C1649       C  0.88358711  0.34870478  0.74961560    -0.39600
C1650       C  0.87801167  0.35863285  0.72862036     0.21200
N1651       N  0.86237892  0.38444675  0.70506240    -0.32900
C1652       C  0.87294868  0.36805287  0.69279898    -0.10500
C1653       C  0.88299728  0.35172464  0.70681450    -0.29300
N1654       N  0.87996439  0.35512815  0.79075994    -0.45900
C1655       C  0.87116971  0.37250445  0.80305643    -0.05200
C1656       C  0.86160448  0.38914977  0.78901685    -0.22500
H1657       H  0.84986708  0.40704947  0.74496296     0.19300
H1658       H  0.89304658  0.33290696  0.75087578     0.18100
H1659       H  0.89256118  0.33681414  0.70170558     0.14400
H1660       H  0.85343586  0.40487019  0.79409159     0.14200
H1661       H  0.85393237  0.39884885  0.69882019     0.32400
H1662       H  0.88843594  0.34072090  0.79692670     0.35100
C1663       C  0.86544145  0.22365740  0.61312277     0.20700
C1664       C  0.85688958  0.24393265  0.60370305    -0.39100
C1665       C  0.86547762  0.26405166  0.61288957     0.19700
C1666       C  0.88176144  0.26398059  0.62980543     0.22400
C1667       C  0.88996061  0.24368260  0.63959211    -0.39600
C1668       C  0.88097704  0.22354166  0.63073506     0.21200
N1669       N  0.86000313  0.20234285  0.60727545    -0.32900
C1670       C  0.87170781  0.18855158  0.62160990    -0.10500
C1671       C  0.88494395  0.20109457  0.63656759    -0.29300
N1672       N  0.88765316  0.28535761  0.63508409    -0.45900
C1673       C  0.87463811  0.29908437  0.62180332    -0.05200
C1674       C  0.86051332  0.28645130  0.60781392    -0.22500
H1675       H  0.84441276  0.24402969  0.59024311     0.19300
H1676       H  0.90235725  0.24358390  0.65312707     0.18100
H1677       H  0.89615130  0.19463962  0.64967951     0.14400
H1678       H  0.84849610  0.29281615  0.59539780     0.14200
H1679       H  0.84869651  0.19744818  0.59459793     0.32400
H1680       H  0.89946395  0.29033844  0.64723507     0.35100
C1681       C  0.86768205  0.37462825  0.26875430     0.20700
C1682       C  0.85592768  0.36801154  0.24920442    -0.39100
C1683       C  0.86633482  0.37360548  0.22840438     0.19700
C1684       C  0.88667945  0.38530389  0.22718085     0.22400
C1685       C  0.89864230  0.39156274  0.24674554    -0.39600
C1686       C  0.88841347  0.38562278  0.26755791     0.21200
N1687       N  0.86138168  0.37126073  0.29050358    -0.32900
C1688       C  0.87837831  0.37982606  0.30326212    -0.10500
C1689       C  0.89560121  0.38887086  0.28957990    -0.29300
N1690       N  0.89270730  0.38906689  0.20539883    -0.45900
C1691       C  0.87631997  0.37929221  0.19272598    -0.05200
C1692       C  0.85963268  0.36938371  0.20641250    -0.22500
H1693       H  0.83989597  0.35909874  0.25012661     0.19300
H1694       H  0.91474089  0.40035486  0.24582813     0.18100
H1695       H  0.91117245  0.39684618  0.29502229     0.14400
H1696       H  0.84452185  0.36057166  0.20097772     0.14200
H1697       H  0.84661944  0.36326675  0.29632652     0.32400
H1698       H  0.90723793  0.39739605  0.19948576     0.35100
C1699       C  0.89011602  0.37164072  0.47750151     0.20700
C1700       C  0.90347829  0.37009302  0.49717927    -0.39100
C1701       C  0.89147159  0.37028182  0.51787014     0.19700
C1702       C  0.86798292  0.37185805  0.51879820     0.22400
C1703       C  0.85464601  0.37334493  0.49916829    -0.39600
C1704       C  0.86662992  0.37317570  0.47853091     0.21200
N1705       N  0.89736574  0.37206751  0.45579095    -0.32900
C1706       C  0.87833990  0.37387759  0.44296706    -0.10500
C1707       C  0.85884412  0.37457881  0.45654703    -0.29300
N1708       N  0.86062656  0.37191186  0.54041666    -0.45900
C1709       C  0.87952178  0.37038325  0.55341919    -0.05200
C1710       C  0.89913867  0.36929899  0.53999236    -0.22500
H1711       H  0.92184337  0.36894910  0.49643415     0.19300
H1712       H  0.83628888  0.37464998  0.49991933     0.18100
H1713       H  0.84135298  0.37605068  0.45106688     0.14400
H1714       H  0.91658663  0.36803301  0.54564397     0.14200
H1715       H  0.91420627  0.37124432  0.45005544     0.32400
H1716       H  0.84375377  0.37300354  0.54598707     0.35100
C1717       C  0.88703428  0.72342783  0.62165607     0.20700
C1718       C  0.89433313  0.74313845  0.61025533    -0.39100
C1719       C  0.88643852  0.76376210  0.61928270     0.19700
C1720       C  0.87280415  0.76471543  0.63853806     0.22400
C1721       C  0.86525145  0.74499408  0.64974683    -0.39600
C1722       C  0.87266960  0.72435306  0.64037968     0.21200
N1723       N  0.89166979  0.70174624  0.61612466    -0.32900
C1724       C  0.87978517  0.68884727  0.63114947    -0.10500
C1725       C  0.86763226  0.70227453  0.64645839    -0.29300
N1726       N  0.86743835  0.78636458  0.64355226    -0.45900
C1727       C  0.87725188  0.79920369  0.62703412    -0.05200
C1728       C  0.88928874  0.78575149  0.61162461    -0.22500
H1729       H  0.90499795  0.74245237  0.59521129     0.19300
H1730       H  0.85405821  0.74566335  0.66440324     0.18100
H1731       H  0.85664047  0.69661300  0.66016727     0.14400
H1732       H  0.89872374  0.79132854  0.59676598     0.14200
H1733       H  0.90172953  0.69605292  0.60260896     0.32400
H1734       H  0.85715705  0.79201606  0.65693548     0.35100
C1735       C  0.88443801  0.60775743  0.73415241     0.20700
C1736       C  0.89135947  0.59628466  0.75397133    -0.39100
C1737       C  0.88386995  0.60583001  0.77451253     0.19700
C1738       C  0.87087389  0.62553307  0.77524356     0.22400
C1739       C  0.86357098  0.63672740  0.75544179    -0.39600
C1740       C  0.87068920  0.62694922  0.73492042     0.21200
N1741       N  0.88938707  0.60227954  0.71251697    -0.32900
C1742       C  0.87829644  0.61784739  0.69953541    -0.10500
C1743       C  0.86636697  0.63341269  0.71282700    -0.29300
N1744       N  0.86670637  0.63163075  0.79683990    -0.45900
C1745       C  0.87677449  0.61546719  0.80992839    -0.05200
C1746       C  0.88752482  0.59900669  0.79666166    -0.22500
H1747       H  0.90182210  0.58109182  0.75344375     0.19300
H1748       H  0.85314115  0.65194321  0.75597136     0.18100
H1749       H  0.85613697  0.64766288  0.70705954     0.14400
H1750       H  0.89714076  0.58435229  0.80246923     0.14200
H1751       H  0.89927537  0.58859486  0.70690117     0.32400
H1752       H  0.85746477  0.64579008  0.80234959     0.35100
C1753       C  0.88833141  0.51452802  0.62816771     0.20700
C1754       C  0.90162860  0.49466359  0.62906604    -0.39100
C1755       C  0.88972645  0.47420425  0.62709502     0.19700
C1756       C  0.86635741  0.47360422  0.62447103     0.22400
C1757       C  0.85303996  0.49347723  0.62361376    -0.39600
C1758       C  0.86495392  0.51394791  0.62558717     0.21200
N1759       N  0.89560632  0.53605407  0.62958583    -0.32900
C1760       C  0.87674330  0.54929938  0.62799098    -0.10500
C1761       C  0.85726380  0.53614066  0.62547066    -0.29300
N1762       N  0.85913753  0.45205433  0.62300719    -0.45900
C1763       C  0.87803307  0.43883756  0.62468235    -0.05200
C1764       C  0.89746325  0.45203597  0.62724935    -0.22500
H1765       H  0.91989790  0.49511390  0.63112740     0.19300
H1766       H  0.83476774  0.49302678  0.62156788     0.18100
H1767       H  0.83988066  0.54202017  0.62371886     0.14400
H1768       H  0.91485331  0.44619934  0.62905845     0.14200
H1769       H  0.91239051  0.54140913  0.63158712     0.32400
H1770       H  0.84236879  0.44666462  0.62099092     0.35100
C1771       C  0.86027781  0.62106317  0.23414623     0.20700
C1772       C  0.84828361  0.61495498  0.25397027    -0.39100
C1773       C  0.85823836  0.62153577  0.27452678     0.19700
C1774       C  0.87874095  0.63296799  0.27522492     0.22400
C1775       C  0.89044693  0.63950410  0.25542140    -0.39600
C1776       C  0.88032815  0.63326633  0.23489684     0.21200
N1777       N  0.85486260  0.61622176  0.21254152    -0.32900
C1778       C  0.87138315  0.62579059  0.19955018    -0.10500
C1779       C  0.88745661  0.63671270  0.21280360    -0.29300
N1780       N  0.88519142  0.63629588  0.29679867    -0.45900
C1781       C  0.86851439  0.62728411  0.30995990    -0.05200
C1782       C  0.85130782  0.61803806  0.29672548    -0.22500
H1783       H  0.83252063  0.60557159  0.25343890     0.19300
H1784       H  0.90639337  0.64857349  0.25596241     0.18100
H1785       H  0.90260030  0.64545277  0.20704867     0.14400
H1786       H  0.83613167  0.60941311  0.30257175     0.14200
H1787       H  0.84079188  0.60712651  0.20694307     0.32400
H1788       H  0.90000533  0.64428215  0.30226341     0.35100
C1789       C  0.88315436  0.52272065  0.37940002     0.20700
C1790       C  0.89733810  0.50352527  0.38027592    -0.39100
C1791       C  0.88640459  0.48259338  0.37819118     0.19700
C1792       C  0.86311000  0.48092069  0.37543462     0.22400
C1793       C  0.84888774  0.50015980  0.37452732    -0.39600
C1794       C  0.85984393  0.52114073  0.37667675     0.21200
N1795       N  0.88949970  0.54449199  0.38088370    -0.32900
C1796       C  0.87012926  0.55692457  0.37915897    -0.10500
C1797       C  0.85120877  0.54300073  0.37654367    -0.29300
N1798       N  0.85692614  0.45905660  0.37392626    -0.45900
C1799       C  0.87643866  0.44678767  0.37570440    -0.05200
C1800       C  0.89519404  0.46085810  0.37837091    -0.22500
H1801       H  0.91555174  0.50480780  0.38242350     0.19300
H1802       H  0.83067840  0.49887954  0.37234329     0.18100
H1803       H  0.83362900  0.54817189  0.37458459     0.14400
H1804       H  0.91283241  0.45585833  0.38023875     0.14200
H1805       H  0.90600683  0.55051965  0.38290748     0.32400
H1806       H  0.84050045  0.45287881  0.37178521     0.35100
C1807       C  0.88566469  0.62407166  0.48379173     0.20700
C1808       C  0.89976327  0.62304120  0.50296892    -0.39100
C1809       C  0.88849572  0.62236127  0.52405867     0.19700
C1810       C  0.86500907  0.62270323  0.52584388     0.22400
C1811       C  0.85093747  0.62374437  0.50669753    -0.39600
C1812       C  0.86218565  0.62440903  0.48564078     0.21200
N1813       N  0.89214013  0.62470406  0.46184595    -0.32900
C1814       C  0.87263407  0.62543517  0.44966718    -0.10500
C1815       C  0.85359533  0.62529413  0.46391835    -0.29300
N1816       N  0.85842939  0.62195019  0.54772034    -0.45900
C1817       C  0.87783966  0.62113549  0.56000037    -0.05200
C1818       C  0.89698238  0.62133582  0.54585837    -0.22500
H1819       H  0.91812236  0.62275617  0.50156903     0.19300
H1820       H  0.83257787  0.62398452  0.50809884     0.18100
H1821       H  0.83587702  0.62566477  0.45903563     0.14400
H1822       H  0.91466682  0.62087941  0.55085500     0.14200
H1823       H  0.90875853  0.62453714  0.45555225     0.32400
H1824       H  0.84176488  0.62203410  0.55391034     0.35100
C1825       C  0.37571590  0.11293994  0.72946991     0.20700
C1826       C  0.38705540  0.10585478  0.74917839    -0.39100
C1827       C  0.37787506  0.11387524  0.76964152     0.19700
C1828       C  0.35864218  0.12757390  0.77045302     0.22400
C1829       C  0.34758770  0.13507047  0.75070908    -0.39600
C1830       C  0.35700386  0.12736056  0.73022059     0.21200
N1831       N  0.38125462  0.10793398  0.70790979    -0.32900
C1832       C  0.36625936  0.11968734  0.69495637    -0.10500
C1833       C  0.35092384  0.13204994  0.70814725    -0.29300
N1834       N  0.35301146  0.13237430  0.79205105    -0.45900
C1835       C  0.36902610  0.12195694  0.80496248    -0.05200
C1836       C  0.38488937  0.11038248  0.79164115    -0.22500
H1837       H  0.40197659  0.09500299  0.74861625     0.19300
H1838       H  0.33285076  0.14617372  0.75125125     0.18100
H1839       H  0.33732049  0.14308070  0.70232483     0.14400
H1840       H  0.39939249  0.10050409  0.79733490     0.14200
H1841       H  0.39483408  0.09786895  0.70231554     0.32400
H1842       H  0.33936332  0.14235368  0.79765301     0.35100
C1843       C  0.26408619  0.12819271  0.63457789     0.20700
C1844       C  0.24419007  0.13606109  0.64526821    -0.39100
C1845       C  0.22376876  0.12791069  0.63633966     0.19700
C1846       C  0.22322855  0.11341014  0.61789518     0.22400
C1847       C  0.24312496  0.10515439  0.60753459    -0.39600
C1848       C  0.26354017  0.11295092  0.61673990     0.21200
N1849       N  0.28561870  0.13357981  0.63964947    -0.32900
C1850       C  0.29878196  0.12127258  0.62525566    -0.10500
C1851       C  0.28570623  0.10811690  0.61079791    -0.29300
N1852       N  0.20170004  0.10895842  0.61200842    -0.45900
C1853       C  0.18848043  0.12037409  0.62707134    -0.05200
C1854       C  0.20157667  0.13226323  0.64262018    -0.22500
H1855       H  0.24457747  0.14772333  0.65941447     0.19300
H1856       H  0.24273708  0.09358259  0.59331393     0.18100
H1857       H  0.29164213  0.09683431  0.59754062     0.14400
H1858       H  0.19563737  0.14305693  0.65627791     0.14200
H1859       H  0.29105977  0.14458832  0.65233456     0.32400
H1860       H  0.19631221  0.09869266  0.59868263     0.35100
C1861       C  0.38472542  0.12195078  0.22967883     0.20700
C1862       C  0.39346143  0.11203198  0.24960383    -0.39100
C1863       C  0.38462286  0.12051967  0.27008830     0.19700
C1864       C  0.36871013  0.13795773  0.27070690     0.22400
C1865       C  0.35961497  0.14755471  0.25076281    -0.39600
C1866       C  0.36807201  0.13868697  0.23025145     0.21200
N1867       N  0.39021896  0.11674138  0.20810501    -0.32900
C1868       C  0.37655202  0.12980891  0.19484233    -0.10500
C1869       C  0.36246970  0.14370840  0.20800623    -0.29300
N1870       N  0.36352690  0.14337688  0.29232060    -0.45900
C1871       C  0.37586555  0.12894668  0.30549906    -0.05200
C1872       C  0.38911575  0.11434360  0.29227286    -0.22500
H1873       H  0.40610539  0.09858968  0.24918464     0.19300
H1874       H  0.34679817  0.16083197  0.25118504     0.18100
H1875       H  0.34997719  0.15593503  0.20207601     0.14400
H1876       H  0.40067139  0.10119015  0.29813442     0.14200
H1877       H  0.40213665  0.10466538  0.20271224     0.32400
H1878       H  0.35200101  0.15579650  0.29779021     0.35100
C1879       C  0.37102301  0.13739178  0.48020945     0.20700
C1880       C  0.36888143  0.15032527  0.50009908    -0.39100
C1881       C  0.36989113  0.13802035  0.52060051     0.19700
C1882       C  0.37280018  0.11464232  0.52119433     0.22400
C1883       C  0.37488870  0.10172639  0.50133692    -0.39600
C1884       C  0.37383501  0.11400711  0.48085950     0.21200
N1885       N  0.37064156  0.14498931  0.45861014    -0.32900
C1886       C  0.37310546  0.12629928  0.44543085    -0.10500
C1887       C  0.37513549  0.10664920  0.45870485    -0.29300
N1888       N  0.37306756  0.10693808  0.54271891    -0.45900
C1889       C  0.37028544  0.12550649  0.55595857    -0.05200
C1890       C  0.36829321  0.14525138  0.54280604    -0.22500
H1891       H  0.36656877  0.16859472  0.49964101     0.19300
H1892       H  0.37710436  0.08344551  0.50180313     0.18100
H1893       H  0.37732240  0.08933965  0.45291965     0.14400
H1894       H  0.36586396  0.16249618  0.54869385     0.14200
H1895       H  0.36868421  0.16186174  0.45315469     0.32400
H1896       H  0.37499406  0.09002600  0.54808626     0.35100
C1897       C  0.72296135  0.13024201  0.61261044     0.20700
C1898       C  0.74291409  0.13887592  0.60267952    -0.39100
C1899       C  0.76336469  0.12996429  0.61124547     0.19700
C1900       C  0.76388320  0.11404839  0.62870731     0.22400
C1901       C  0.74392815  0.10504079  0.63827130    -0.39600
C1902       C  0.72349146  0.11360460  0.62938823     0.21200
N1903       N  0.70140872  0.13618430  0.60777550    -0.32900
C1904       C  0.68819030  0.12288268  0.62124061    -0.10500
C1905       C  0.70128711  0.10847455  0.63484308    -0.29300
N1906       N  0.78543775  0.10887250  0.63432083    -0.45900
C1907       C  0.79872317  0.12120214  0.62000625    -0.05200
C1908       C  0.78560501  0.13446908  0.60526854    -0.22500
H1909       H  0.74254390  0.15161162  0.58930804     0.19300
H1910       H  0.74428701  0.09233286  0.65166914     0.18100
H1911       H  0.69533829  0.09627695  0.64736142     0.14400
H1912       H  0.79156482  0.14606479  0.59219466     0.14200
H1913       H  0.69599058  0.14831891  0.59588953     0.32400
H1914       H  0.79080816  0.09736677  0.64682942     0.35100
C1915       C  0.63223118  0.12992091  0.72627203     0.20700
C1916       C  0.64448994  0.13683256  0.74540249    -0.39100
C1917       C  0.63532541  0.13031400  0.76651160     0.19700
C1918       C  0.61527965  0.11818788  0.76840917     0.22400
C1919       C  0.60329813  0.11084922  0.74928062    -0.39600
C1920       C  0.61266533  0.11703273  0.72816553     0.21200
N1921       N  0.63705512  0.13438268  0.70433551    -0.32900
C1922       C  0.62068097  0.12389961  0.69222968    -0.10500
C1923       C  0.60526578  0.11274711  0.70643003    -0.29300
N1924       N  0.60969601  0.11487309  0.79034989    -0.45900
C1925       C  0.62652706  0.12458789  0.80246830    -0.05200
C1926       C  0.64288843  0.13429760  0.78824341    -0.22500
H1927       H  0.65993244  0.14667286  0.74396353     0.19300
H1928       H  0.58776271  0.10115736  0.75073299     0.18100
H1929       H  0.59041129  0.10323060  0.70150282     0.14400
H1930       H  0.65800701  0.14339752  0.79316632     0.14200
H1931       H  0.65074757  0.14374025  0.69795127     0.32400
H1932       H  0.59545170  0.10633713  0.79670947     0.35100
C1933       C  0.47248751  0.13576443  0.62509246     0.20700
C1934       C  0.49192596  0.14950787  0.62432307    -0.39100
C1935       C  0.51282492  0.13786019  0.62416177     0.19700
C1936       C  0.51416936  0.11434989  0.62464932     0.22400
C1937       C  0.49476747  0.10063334  0.62538082    -0.39600
C1938       C  0.47392072  0.11225984  0.62559169     0.21200
N1939       N  0.45065655  0.14262320  0.62541840    -0.32900
C1940       C  0.43816064  0.12333526  0.62610011    -0.10500
C1941       C  0.45206503  0.10405314  0.62622472    -0.29300
N1942       N  0.53592312  0.10737188  0.62441657    -0.45900
C1943       C  0.54859437  0.12653539  0.62384404    -0.05200
C1944       C  0.53480811  0.14593641  0.62364651    -0.22500
H1945       H  0.49085426  0.16788475  0.62393176     0.19300
H1946       H  0.49583333  0.08225517  0.62578821     0.18100
H1947       H  0.44687321  0.08642771  0.62663872     0.14400
H1948       H  0.54014359  0.16351390  0.62318322     0.14200
H1949       H  0.44462512  0.15938074  0.62506627     0.32400
H1950       H  0.54179298  0.09056823  0.62471178     0.35100
C1951       C  0.63092518  0.12396484  0.26803429     0.20700
C1952       C  0.64090004  0.11426640  0.24865370    -0.39100
C1953       C  0.63343646  0.12305774  0.22776951     0.19700
C1954       C  0.61682422  0.13978584  0.22628293     0.22400
C1955       C  0.60709247  0.14975190  0.24569227    -0.39600
C1956       C  0.61501590  0.14137147  0.26661843     0.21200
N1957       N  0.63547016  0.11886107  0.28982424    -0.32900
C1958       C  0.62281602  0.13347792  0.30237725    -0.10500
C1959       C  0.60983233  0.14783508  0.28856227    -0.29300
N1960       N  0.61238996  0.14485324  0.20443173    -0.45900
C1961       C  0.62665819  0.13162180  0.19201865    -0.05200
C1962       C  0.64011568  0.11786592  0.20592428    -0.22500
H1963       H  0.65372983  0.10103836  0.24976625     0.19300
H1964       H  0.59450220  0.16320762  0.24457883     0.18100
H1965       H  0.59814162  0.16108046  0.29387041     0.14400
H1966       H  0.65279533  0.10551296  0.20071747     0.14200
H1967       H  0.64691341  0.10658349  0.29581637     0.32400
H1968       H  0.60068945  0.15681249  0.19832196     0.35100
C1969       C  0.52014733  0.11978108  0.37436691     0.20700
C1970       C  0.50093481  0.10574173  0.37459893    -0.39100
C1971       C  0.47988722  0.11706491  0.37507908     0.19700
C1972       C  0.47817596  0.14055445  0.37526617     0.22400
C1973       C  0.49736967  0.15457714  0.37504119    -0.39600
C1974       C  0.51839238  0.14326564  0.37460380     0.21200
N1975       N  0.54204879  0.11322436  0.37384613    -0.32900
C1976       C  0.55429727  0.13267181  0.37375468    -0.10500
C1977       C  0.54015080  0.15177583  0.37424508    -0.29300
N1978       N  0.45631389  0.14717938  0.37563393    -0.45900
C1979       C  0.44398012  0.12779922  0.37571183    -0.05200
C1980       C  0.45806566  0.10862545  0.37537683    -0.22500
H1981       H  0.50228058  0.08738179  0.37440328     0.19300
H1982       H  0.49602484  0.17293849  0.37517853     0.18100
H1983       H  0.54511746  0.16946756  0.37426509     0.14400
H1984       H  0.45302325  0.09095765  0.37526384     0.14200
H1985       H  0.54827676  0.09655979  0.37354599     0.32400
H1986       H  0.45015998  0.16387839  0.37577575     0.35100
C1987       C  0.62061121  0.14007250  0.51826928     0.20700
C1988       C  0.62185858  0.15434031  0.49905729    -0.39100
C1989       C  0.62330152  0.14329255  0.47803061     0.19700
C1990       C  0.62350916  0.11982928  0.47632863     0.22400
C1991       C  0.62233820  0.10556276  0.49553536    -0.39600
C1992       C  0.62086621  0.11661093  0.51655362     0.21200
N1993       N  0.61919362  0.14638171  0.54014178    -0.32900
C1994       C  0.61860292  0.12681756  0.55247297    -0.10500
C1995       C  0.61957672  0.10786671  0.53834817    -0.29300
N1996       N  0.62443069  0.11350907  0.45445228    -0.45900
C1997       C  0.62473286  0.13305802  0.44209269    -0.05200
C1998       C  0.62417010  0.15202778  0.45620139    -0.22500
H1999       H  0.62159577  0.17268564  0.50038211     0.19300
H2000       H  0.62244504  0.08721666  0.49419753     0.18100
H2001       H  0.61961069  0.09012462  0.54336292     0.14400
H2002       H  0.62395856  0.16976126  0.45115952     0.14200
H2003       H  0.61890718  0.16299205  0.54631679     0.32400
H2004       H  0.62448015  0.09688727  0.44829157     0.35100
C2005       C  0.12391170  0.62691780  0.73564669     0.20700
C2006       C  0.11436547  0.63680728  0.75515019    -0.39100
C2007       C  0.12188008  0.62788175  0.77597678     0.19700
C2008       C  0.13736365  0.61010407  0.77733195     0.22400
C2009       C  0.14731149  0.60052297  0.75777931    -0.39600
C2010       C  0.14013415  0.60979600  0.73689360     0.21200
N2011       N  0.11926129  0.63216225  0.71389320    -0.32900
C2012       C  0.13293568  0.61865347  0.70114346    -0.10500
C2013       C  0.14635548  0.60455497  0.71483092    -0.29300
N2014       N  0.14116809  0.60432714  0.79919376    -0.45900
C2015       C  0.12833332  0.61885666  0.81175962    -0.05200
C2016       C  0.11620868  0.63386996  0.79788707    -0.22500
H2017       H  0.10197006  0.65045421  0.75417817     0.19300
H2018       H  0.15969699  0.58686974  0.75875108     0.18100
H2019       H  0.15854412  0.59183514  0.70935939     0.14400
H2020       H  0.10465483  0.64724852  0.80316169     0.14200
H2021       H  0.10763602  0.64432576  0.70803614     0.32400
H2022       H  0.15215191  0.59165199  0.80521547     0.35100
C2023       C  0.12059703  0.72448044  0.63793774     0.20700
C2024       C  0.10801065  0.74397930  0.64368384    -0.39100
C2025       C  0.11753095  0.76474991  0.63683199     0.19700
C2026       C  0.13784262  0.76595995  0.62484852     0.22400
C2027       C  0.15065886  0.74649352  0.61954522    -0.39600
C2028       C  0.14130135  0.72574524  0.62667726     0.21200
N2029       N  0.11480739  0.70270767  0.64166888    -0.32900
C2030       C  0.13209040  0.69005771  0.63299027    -0.10500
C2031       C  0.14902899  0.70379941  0.62367422    -0.29300
N2032       N  0.14279584  0.78763058  0.61953721    -0.45900
C2033       C  0.12572733  0.80026752  0.62856383    -0.05200
C2034       C  0.10971944  0.78669439  0.63961429    -0.22500
H2035       H  0.09188753  0.74303461  0.65260092     0.19300
H2036       H  0.16660356  0.74741574  0.61031101     0.18100
H2037       H  0.16446822  0.69842266  0.61511335     0.14400
H2038       H  0.09434760  0.79215722  0.64824534     0.14200
H2039       H  0.09995221  0.69679905  0.64946235     0.32400
H2040       H  0.15706756  0.79352683  0.61068440     0.35100
C2041       C  0.11892204  0.63753773  0.23619847     0.20700
C2042       C  0.11032096  0.64766199  0.25605233    -0.39100
C2043       C  0.11733298  0.63759734  0.27657771     0.19700
C2044       C  0.13221020  0.61924987  0.27719051     0.22400
C2045       C  0.14044975  0.60890607  0.25739831    -0.39600
C2046       C  0.13303631  0.61861311  0.23693290     0.21200
N2047       N  0.11470840  0.64366435  0.21455754    -0.32900
C2048       C  0.12582689  0.62819941  0.20154887    -0.10500
C2049       C  0.13737766  0.61228012  0.21486398    -0.29300
N2050       N  0.13698105  0.61332351  0.29869434    -0.45900
C2051       C  0.12471465  0.62766643  0.31187045    -0.05200
C2052       C  0.11209197  0.64299158  0.29879570    -0.22500
H2053       H  0.09895708  0.66220001  0.25555142     0.19300
H2054       H  0.15172871  0.59430155  0.25790539     0.18100
H2055       H  0.14760067  0.59804139  0.20913876     0.14400
H2056       H  0.10112297  0.65656837  0.30475285     0.14200
H2057       H  0.10445348  0.65712225  0.20897105     0.32400
H2058       H  0.14779899  0.60024041  0.30412141     0.35100
C2059       C  0.14230535  0.62411547  0.52653571     0.20700
C2060       C  0.15557093  0.62473838  0.50661800    -0.39100
C2061       C  0.14341617  0.62541163  0.48617380     0.19700
C2062       C  0.11987641  0.62550945  0.48568411     0.22400
C2063       C  0.10663379  0.62494949  0.50556489    -0.39600
C2064       C  0.11877053  0.62422208  0.52597749     0.21200
N2065       N  0.14971080  0.62322626  0.54808648    -0.32900
C2066       C  0.13075682  0.62278590  0.56131739    -0.10500
C2067       C  0.11112190  0.62336884  0.54813653    -0.29300
N2068       N  0.11237367  0.62573714  0.46420318    -0.45900
C2069       C  0.13123385  0.62568024  0.45088160    -0.05200
C2070       C  0.15096851  0.62560564  0.46393282    -0.22500
H2071       H  0.17397035  0.62453874  0.50701184     0.19300
H2072       H  0.08823429  0.62491119  0.50515519     0.18100
H2073       H  0.09363696  0.62317541  0.55397986     0.14400
H2074       H  0.16841319  0.62543507  0.45796345     0.14200
H2075       H  0.16662315  0.62293185  0.55346498     0.32400
H2076       H  0.09542951  0.62570875  0.45892599     0.35100
C2077       C  0.11012170  0.26598641  0.62667193     0.20700
C2078       C  0.09893617  0.24654467  0.63487567    -0.39100
C2079       C  0.10849541  0.22565095  0.62836885     0.19700
C2080       C  0.12741839  0.22423411  0.61430581     0.22400
C2081       C  0.13884482  0.24366170  0.60644694    -0.39600
C2082       C  0.12957380  0.26454573  0.61336451     0.21200
N2083       N  0.10451199  0.28782772  0.63051019    -0.32900
C2084       C  0.12075501  0.30033912  0.61991690    -0.10500
C2085       C  0.13673932  0.28643676  0.60914447    -0.29300
N2086       N  0.13299487  0.20241389  0.61039580    -0.45900
C2087       C  0.11785450  0.18991614  0.62251528    -0.05200
C2088       C  0.10233515  0.20373982  0.63398625    -0.22500
H2089       H  0.08402100  0.24760547  0.64569270     0.19300
H2090       H  0.15394348  0.24259336  0.59588689     0.18100
H2091       H  0.15147733  0.29167588  0.59937078     0.14400
H2092       H  0.08841372  0.19844082  0.64487178     0.14200
H2093       H  0.09074532  0.29385308  0.64006466     0.32400
H2094       H  0.14660177  0.19637348  0.60061846     0.35100
C2095       C  0.11513833  0.37670507  0.72413940     0.20700
C2096       C  0.10374306  0.38398679  0.74378202    -0.39100
C2097       C  0.11345453  0.37705414  0.76438298     0.19700
C2098       C  0.13281163  0.36354590  0.76534826     0.22400
C2099       C  0.14452421  0.35669734  0.74568200    -0.39600
C2100       C  0.13499042  0.36394015  0.72504796     0.21200
N2101       N  0.10896145  0.38050214  0.70253039    -0.32900
C2102       C  0.12515199  0.37037444  0.68958980    -0.10500
C2103       C  0.14181081  0.36002612  0.70295925    -0.29300
N2104       N  0.13822515  0.35877568  0.78701963    -0.45900
C2105       C  0.12245359  0.36973277  0.79981004    -0.05200
C2106       C  0.10680758  0.38142132  0.78638636    -0.22500
H2107       H  0.08838794  0.39420217  0.74306996     0.19300
H2108       H  0.15982407  0.34639988  0.74639186     0.18100
H2109       H  0.15651455  0.35042700  0.69727800     0.14400
H2110       H  0.09249522  0.39163249  0.79200108     0.14200
H2111       H  0.09462315  0.38944840  0.69690733     0.32400
H2112       H  0.15207764  0.34920653  0.79279012     0.35100
C2113       C  0.11838081  0.51621474  0.62703072     0.20700
C2114       C  0.10421530  0.49713714  0.62637094    -0.39100
C2115       C  0.11531734  0.47609026  0.62436769     0.19700
C2116       C  0.13876433  0.47416028  0.62318624     0.22400
C2117       C  0.15297160  0.49327253  0.62388020    -0.39600
C2118       C  0.14183796  0.51437246  0.62582903     0.21200
N2119       N  0.11191465  0.53807574  0.62866798    -0.32900
C2120       C  0.13135457  0.55032527  0.62850953    -0.10500
C2121       C  0.15041576  0.53614271  0.62676960    -0.29300
N2122       N  0.14507586  0.45222559  0.62142070    -0.45900
C2123       C  0.12549356  0.44014301  0.62144360    -0.05200
C2124       C  0.10658135  0.45445190  0.62325760    -0.22500
H2125       H  0.08587717  0.49858629  0.62729329     0.19300
H2126       H  0.17130891  0.49182474  0.62292443     0.18100
H2127       H  0.16810474  0.54110085  0.62613949     0.14400
H2128       H  0.08884856  0.44964883  0.62387807     0.14200
H2129       H  0.09527115  0.54428906  0.62971993     0.32400
H2130       H  0.16166181  0.44586389  0.62037886     0.35100
C2131       C  0.11562809  0.36966618  0.26521006     0.20700
C2132       C  0.10551175  0.36089688  0.24557389    -0.39100
C2133       C  0.11542238  0.36760568  0.22483407     0.19700
C2134       C  0.13371100  0.38230661  0.22374390     0.22400
C2135       C  0.14413021  0.39067065  0.24338726    -0.39600
C2136       C  0.13448394  0.38362609  0.26413618     0.21200
N2137       N  0.10927255  0.36606200  0.28693188    -0.32900
C2138       C  0.12440062  0.37749664  0.29979137    -0.10500
C2139       C  0.14050993  0.38850640  0.28620104    -0.29300
N2140       N  0.13954619  0.38662450  0.20201165    -0.45900
C2141       C  0.12521469  0.37418677  0.18921502    -0.05200
C2142       C  0.10997351  0.36201270  0.20279073    -0.22500
H2143       H  0.09099626  0.34968625  0.24638638     0.19300
H2144       H  0.15866555  0.40185454  0.24257211     0.18100
H2145       H  0.15453819  0.39889495  0.29172903     0.14400
H2146       H  0.09653794  0.35087799  0.19724511     0.14200
H2147       H  0.09571003  0.35612792  0.29269611     0.32400
H2148       H  0.15270365  0.39706289  0.19621433     0.35100
C2149       C  0.11386846  0.52205912  0.37787955     0.20700
C2150       C  0.09995812  0.50274118  0.37704850    -0.39100
C2151       C  0.11142372  0.48174550  0.37620039     0.19700
C2152       C  0.13492262  0.48019102  0.37627148     0.22400
C2153       C  0.14880510  0.49947476  0.37707643    -0.39600
C2154       C  0.13736128  0.52042613  0.37784380     0.21200
N2155       N  0.10719247  0.54394080  0.37876202    -0.32900
C2156       C  0.12658264  0.55629256  0.37931410    -0.10500
C2157       C  0.14574723  0.54221730  0.37869191    -0.29300
N2158       N  0.14172091  0.45840676  0.37503583    -0.45900
C2159       C  0.12246322  0.44592355  0.37397949    -0.05200
C2160       C  0.10317060  0.45986770  0.37479184    -0.22500
H2161       H  0.08158814  0.50397619  0.37695072     0.19300
H2162       H  0.16717806  0.49825240  0.37700249     0.18100
H2163       H  0.16341804  0.54725529  0.37887517     0.14400
H2164       H  0.08554665  0.45471792  0.37420327     0.14200
H2165       H  0.09049378  0.55008923  0.37898218     0.32400
H2166       H  0.15847160  0.45241413  0.37466924     0.35100
C2167       C  0.11073435  0.37288897  0.47436794     0.20700
C2168       C  0.09725288  0.37267637  0.49415781    -0.39100
C2169       C  0.10917908  0.37199349  0.51475659     0.19700
C2170       C  0.13270577  0.37162973  0.51552040     0.22400
C2171       C  0.14616381  0.37186551  0.49576925    -0.39600
C2172       C  0.13425556  0.37246852  0.47520828     0.21200
N2173       N  0.10357880  0.37346992  0.45270124    -0.32900
C2174       C  0.12270591  0.37338472  0.43970092    -0.10500
C2175       C  0.14216158  0.37276302  0.45313509    -0.29300
N2176       N  0.13996761  0.37103571  0.53710492    -0.45900
C2177       C  0.12095393  0.37100779  0.55022745    -0.05200
C2178       C  0.10138241  0.37157966  0.53692199    -0.22500
H2179       H  0.07886219  0.37298649  0.49356025     0.19300
H2180       H  0.16455596  0.37156606  0.49637050     0.18100
H2181       H  0.15971543  0.37262083  0.44750004     0.14400
H2182       H  0.08387032  0.37173552  0.54268470     0.14200
H2183       H  0.08677387  0.37392643  0.44711915     0.32400
H2184       H  0.15681545  0.37070696  0.54256462     0.35100
C2185       C  0.77034892  0.86788060  0.36485987     0.20700
C2186       C  0.75063022  0.85854276  0.35551777    -0.39100
C2187       C  0.73002836  0.86608169  0.36500628     0.19700
C2188       C  0.72914315  0.88198166  0.38225397     0.22400
C2189       C  0.74887950  0.89086346  0.39203213    -0.39600
C2190       C  0.76949349  0.88308178  0.38273082     0.21200
N2191       N  0.79196122  0.86388198  0.35845254    -0.32900
C2192       C  0.80494640  0.87627232  0.37264203    -0.10500
C2193       C  0.79159454  0.88838523  0.38810375    -0.29300
N2194       N  0.70748500  0.88732907  0.38736614    -0.45900
C2195       C  0.69454539  0.87444238  0.37355706    -0.05200
C2196       C  0.70793945  0.86080723  0.35951090    -0.22500
H2197       H  0.75127379  0.84650582  0.34169053     0.19300
H2198       H  0.74822858  0.90312340  0.40566639     0.18100
H2199       H  0.79730954  0.89972941  0.40128313     0.14400
H2200       H  0.70226913  0.84916510  0.34657942     0.14200
H2201       H  0.79756642  0.85310048  0.34551269     0.32400
H2202       H  0.70181522  0.89895238  0.39953977     0.35100
C2203       C  0.88141678  0.77149905  0.36822022     0.20700
C2204       C  0.89107359  0.75121685  0.36013143    -0.39100
C2205       C  0.88171496  0.73113899  0.36901177     0.19700
C2206       C  0.86365150  0.73124780  0.38423147     0.22400
C2207       C  0.85420033  0.75153026  0.39254388    -0.39600
C2208       C  0.86401350  0.77161967  0.38418795     0.21200
N2209       N  0.88742238  0.79282702  0.36262660    -0.32900
C2210       C  0.87414583  0.80657943  0.37554421    -0.10500
C2211       C  0.85936111  0.79402506  0.38925805    -0.29300
N2212       N  0.85756442  0.70992171  0.38974900    -0.45900
C2213       C  0.87219512  0.69621346  0.37834734    -0.05200
C2214       C  0.88757457  0.70876465  0.36531348    -0.22500
H2215       H  0.90500972  0.75108397  0.34802891     0.19300
H2216       H  0.84041005  0.75165293  0.40480978     0.18100
H2217       H  0.84665214  0.80045006  0.40098519     0.14400
H2218       H  0.90099705  0.70234758  0.35439475     0.14200
H2219       H  0.89996265  0.79775174  0.35099367     0.32400
H2220       H  0.84456406  0.70498084  0.40086576     0.35100
C2221       C  0.88632643  0.23149668  0.36473999     0.20700
C2222       C  0.89788616  0.25106462  0.35741904    -0.39100
C2223       C  0.88845710  0.27182423  0.36447580     0.19700
C2224       C  0.86877748  0.27296184  0.37746893     0.22400
C2225       C  0.85749972  0.25339862  0.38521098    -0.39600
C2226       C  0.86716755  0.23263164  0.37850216     0.21200
N2227       N  0.89150457  0.20978828  0.35985112    -0.32900
C2228       C  0.87580631  0.19703036  0.37092866    -0.10500
C2229       C  0.86043317  0.21060811  0.38291215    -0.29300
N2230       N  0.86286667  0.29467858  0.38130699    -0.45900
C2231       C  0.87914359  0.30744512  0.37111031    -0.05200
C2232       C  0.89546157  0.29384320  0.36047119    -0.22500
H2233       H  0.91303588  0.25018726  0.34691828     0.19300
H2234       H  0.84227296  0.25429087  0.39560193     0.18100
H2235       H  0.84597536  0.20511295  0.39296377     0.14400
H2236       H  0.91022514  0.29933390  0.35087922     0.14200
H2237       H  0.90496243  0.20396454  0.34975757     0.32400
H2238       H  0.84881823  0.30048167  0.39058346     0.35100
C2239       C  0.76950018  0.12443149  0.37776021     0.20700
C2240       C  0.74959756  0.11568536  0.38759183    -0.39100
C2241       C  0.72919941  0.12519837  0.37969846     0.19700
C2242       C  0.72862930  0.14254394  0.36365825     0.22400
C2243       C  0.74856737  0.15103314  0.35350281    -0.39600
C2244       C  0.76900287  0.14109252  0.36100472     0.21200
N2245       N  0.79097960  0.11816700  0.38237524    -0.32900
C2246       C  0.80427152  0.13052126  0.36812429    -0.10500
C2247       C  0.79123023  0.14496765  0.35442813    -0.29300
N2248       N  0.70703121  0.14868296  0.35915191    -0.45900
C2249       C  0.69387010  0.13471040  0.37200014    -0.05200
C2250       C  0.70705063  0.11984275  0.38500806    -0.22500
H2251       H  0.74996185  0.10226859  0.40028070     0.19300
H2252       H  0.74818223  0.16420671  0.34056365     0.18100
H2253       H  0.79723975  0.15696989  0.34175169     0.14400
H2254       H  0.70117603  0.10680738  0.39668531     0.14200
H2255       H  0.79629362  0.10602782  0.39429914     0.32400
H2256       H  0.70155224  0.16103985  0.34753016     0.35100
C2257       C  0.87188656  0.02230393  0.35536093     0.20700
C2258       C  0.86985066  0.00234586  0.34244978    -0.39100
C2259       C  0.87148636  0.98174926  0.35470159     0.19700
C2260       C  0.87480298  0.98119409  0.37798539     0.22400
C2261       C  0.87684337  0.00104964  0.39082238    -0.39600
C2262       C  0.87525155  0.02153482  0.37862511     0.21200
N2263       N  0.87087814  0.04403606  0.34793259    -0.32900
C2264       C  0.87352451  0.05708962  0.36668948    -0.10500
C2265       C  0.87636215  0.04360785  0.38608295    -0.29300
N2266       N  0.87593937  0.95968791  0.38570157    -0.45900
C2267       C  0.87348815  0.94628439  0.36725411    -0.05200
C2268       C  0.87059185  0.95941170  0.34754780    -0.22500
H2269       H  0.86724151  0.00281188  0.32425019     0.19300
H2270       H  0.87949881  0.00057832  0.40901766     0.18100
H2271       H  0.87884771  0.04922774  0.40337438     0.14400
H2272       H  0.86826829  0.95343062  0.33035896     0.14200
H2273       H  0.86839940  0.04961446  0.33126823     0.32400
H2274       H  0.87844565  0.95445004  0.40249652     0.35100
C2275       C  0.12027696  0.77155444  0.38955410     0.20700
C2276       C  0.11093497  0.75167409  0.39893269    -0.39100
C2277       C  0.12012447  0.73119581  0.39082533     0.19700
C2278       C  0.13756507  0.73054896  0.37490738     0.22400
C2279       C  0.14653399  0.75041043  0.36514292    -0.39600
C2280       C  0.13707701  0.77087850  0.37296239     0.21200
N2281       N  0.11461145  0.79316039  0.39446361    -0.32900
C2282       C  0.12760952  0.80623937  0.38056127    -0.10500
C2283       C  0.14169634  0.79299872  0.36680341    -0.29300
N2284       N  0.14349137  0.70896653  0.37023851    -0.45900
C2285       C  0.12934633  0.69584776  0.38290157    -0.05200
C2286       C  0.11451665  0.70904740  0.39591425    -0.22500
H2287       H  0.09745218  0.75210970  0.41153059     0.19300
H2288       H  0.15982086  0.74996321  0.35233904     0.18100
H2289       H  0.15383132  0.79882515  0.35417546     0.14400
H2290       H  0.10139159  0.70318669  0.40748619     0.14200
H2291       H  0.10236632  0.79866914  0.40615072     0.32400
H2292       H  0.15587216  0.70348787  0.35868088     0.35100
C2293       C  0.22932655  0.87321121  0.36922870     0.20700
C2294       C  0.24938432  0.86521864  0.35893316    -0.39100
C2295       C  0.26966847  0.87368656  0.36786420     0.19700
C2296       C  0.26990180  0.88942792  0.38526637     0.22400
C2297       C  0.24984401  0.89716110  0.39578908    -0.39600
C2298       C  0.22957369  0.88820537  0.38727651     0.21200
N2299       N  0.20791399  0.86761390  0.36396542    -0.32900
C2300       C  0.19446279  0.87870826  0.37906283    -0.10500
C2301       C  0.20730612  0.89167158  0.39397086    -0.29300
N2302       N  0.29134107  0.89498369  0.39054000    -0.45900
C2303       C  0.30481727  0.88227713  0.37679737    -0.05200
C2304       C  0.29197437  0.86872658  0.36243670    -0.22500
H2305       H  0.24920850  0.85309004  0.34517802     0.19300
H2306       H  0.25003163  0.90905556  0.40974569     0.18100
H2307       H  0.20115334  0.90249138  0.40751627     0.14400
H2308       H  0.29814079  0.85692174  0.34974683     0.14200
H2309       H  0.20273792  0.85670717  0.35105190     0.32400
H2310       H  0.29653541  0.90623775  0.40314640     0.35100
C2311       C  0.97895653  0.87526275  0.38394297     0.20700
C2312       C  0.99827457  0.87410137  0.39777129    -0.39100
C2313       C  0.01919097  0.87357551  0.38626062     0.19700
C2314       C  0.02078048  0.87413390  0.36276322     0.22400
C2315       C  0.00143471  0.87529143  0.34891354    -0.39600
C2316       C  0.98047961  0.87582601  0.36044116     0.21200
N2317       N  0.95713851  0.87574545  0.39076254    -0.32900
C2318       C  0.94463395  0.87650402  0.37148377    -0.10500
C2319       C  0.95858404  0.87668015  0.35220627    -0.29300
N2320       N  0.04266223  0.87397225  0.35604281    -0.45900
C2321       C  0.05503321  0.87347831  0.37542587    -0.05200
C2322       C  0.04099482  0.87307088  0.39460275    -0.22500
H2323       H  0.99710675  0.87372639  0.41614565     0.19300
H2324       H  0.00261200  0.87580363  0.33054310     0.18100
H2325       H  0.95339573  0.87710806  0.33457984     0.14400
H2326       H  0.04607478  0.87289322  0.41226545     0.14200
H2327       H  0.95111696  0.87531528  0.40752323     0.32400
H2328       H  0.04879997  0.87463215  0.33932803     0.35100
C2329       C  0.22825215  0.13593466  0.37915041     0.20700
C2330       C  0.24751097  0.14444365  0.39016305    -0.39100
C2331       C  0.26856634  0.13715540  0.38142266     0.19700
C2332       C  0.27024999  0.12221480  0.36337986     0.22400
C2333       C  0.25102720  0.11420829  0.35200686    -0.39600
C2334       C  0.23001208  0.12177461  0.36050133     0.21200
N2335       N  0.20631625  0.13968055  0.38457554    -0.32900
C2336       C  0.19409725  0.12814903  0.36900055    -0.10500
C2337       C  0.20824751  0.11692507  0.35360358    -0.29300
N2338       N  0.29209593  0.11698511  0.35900129    -0.45900
C2339       C  0.30441302  0.12901193  0.37406444    -0.05200
C2340       C  0.29041174  0.14197750  0.38820704    -0.22500
H2341       H  0.24619818  0.15570091  0.40459829     0.19300
H2342       H  0.25233091  0.10273010  0.33774765     0.18100
H2343       H  0.20325623  0.10621528  0.33961926     0.14400
H2344       H  0.29553407  0.15304531  0.40185981     0.14200
H2345       H  0.20003107  0.14955739  0.39791897     0.32400
H2346       H  0.29829251  0.10616340  0.34636479     0.35100
C2347       C  0.12995970  0.23081629  0.35716647     0.20700
C2348       C  0.13929983  0.25071957  0.34776846    -0.39100
C2349       C  0.13195565  0.27116117  0.35766105     0.19700
C2350       C  0.11620902  0.27169895  0.37526233     0.22400
C2351       C  0.10729313  0.25182229  0.38498082    -0.39600
C2352       C  0.11490344  0.23142136  0.37535119     0.21200
N2353       N  0.13424154  0.20922833  0.35098595    -0.32900
C2354       C  0.12218952  0.19610812  0.36570464    -0.10500
C2355       C  0.10997008  0.20930440  0.38114430    -0.29300
N2356       N  0.11132137  0.29320624  0.38109705    -0.45900
C2357       C  0.12436964  0.30643604  0.36743048    -0.05200
C2358       C  0.13760586  0.29337468  0.35267585    -0.22500
H2359       H  0.15138110  0.25032229  0.33382164     0.19300
H2360       H  0.09531782  0.25221232  0.39902065     0.18100
H2361       H  0.09905260  0.20345634  0.39483589     0.14400
H2362       H  0.14932949  0.29936233  0.33973779     0.14200
H2363       H  0.14521194  0.20373397  0.33809367     0.32400
H2364       H  0.09999069  0.29858365  0.39373390     0.35100
C2365       C  0.97864683  0.12536770  0.35672534     0.20700
C2366       C  0.99845481  0.12539338  0.34330418    -0.39100
C2367       C  0.01900638  0.12571353  0.35527498     0.19700
C2368       C  0.01974886  0.12601561  0.37879927     0.22400
C2369       C  0.99994987  0.12605095  0.39221293    -0.39600
C2370       C  0.97940881  0.12569282  0.38024775     0.21200
N2371       N  0.95702312  0.12520825  0.34948487    -0.32900
C2372       C  0.94394384  0.12548609  0.36854430    -0.10500
C2373       C  0.95729125  0.12574326  0.38806258    -0.29300
N2374       N  0.04135185  0.12609344  0.38606817    -0.45900
C2375       C  0.05446278  0.12579405  0.36703911    -0.05200
C2376       C  0.04114825  0.12562391  0.34748921    -0.22500
H2377       H  0.99790622  0.12514807  0.32491398     0.19300
H2378       H  0.00049944  0.12630601  0.41060333     0.18100
H2379       H  0.95157187  0.12611220  0.40558262     0.14400
H2380       H  0.04689973  0.12536699  0.32997717     0.14200
H2381       H  0.95151130  0.12508956  0.33263728     0.32400
H2382       H  0.04683319  0.12627513  0.40292903     0.35100
C2383       C  0.12580333  0.02145439  0.36036712     0.20700
C2384       C  0.12550777  0.00130103  0.34769308    -0.39100
C2385       C  0.12451112  0.98104528  0.36043354     0.19700
C2386       C  0.12387220  0.98091687  0.38397128     0.22400
C2387       C  0.12426048  0.00104365  0.39662124    -0.39600
C2388       C  0.12524671  0.02127031  0.38390388     0.21200
N2389       N  0.12623925  0.04291007  0.35234349    -0.32900
C2390       C  0.12591928  0.05646191  0.37091180    -0.10500
C2391       C  0.12540204  0.04357148  0.39090655    -0.29300
N2392       N  0.12304017  0.95952727  0.39208311    -0.45900
C2393       C  0.12322453  0.94588087  0.37360806    -0.05200
C2394       C  0.12409882  0.95868183  0.35353401    -0.22500
H2395       H  0.12593197  0.00138999  0.32928955     0.19300
H2396       H  0.12373765  0.00096151  0.41502168     0.18100
H2397       H  0.12484118  0.04970281  0.40821185     0.14400
H2398       H  0.12460927  0.95245433  0.33626233     0.14200
H2399       H  0.12647392  0.04802409  0.33528828     0.32400
H2400       H  0.12261883  0.95451346  0.40916178     0.35100
loop_ 
_geom_bond_atom_site_label_1 
_geom_bond_atom_site_label_2 
_geom_bond_distance 
_geom_bond_site_symmetry_2 
_ccdc_geom_bond_type 
O1           Cu9   2.013       .  S
O1           C11   1.278       .  A
O2           Cu9   2.006       .  S
O2           C12   1.277       .  A
O3           Cu9   2.012       .  S
O3           C13   1.278       .  A
O4           Cu9   2.018       .  S
O4           C14   1.278       .  A
O5          Cu10   1.999       .  S
O5           C14   1.276       .  A
O6          Cu10   2.012       .  S
O6           C13   1.278       .  A
O7          Cu10   2.014       .  S
O7           C12   1.278       .  A
O8          Cu10   2.005       .  S
O8           C11   1.277       .  A
Cu9         Cu10   2.374       .  S
C11        C2375   1.470       .  S
C12        C2336   1.468       .  S
C13        C2390   1.473       .  S
C14        C2354   1.466       .  S
O15         Cu23   2.017       .  S
O15          C25   1.278       .  A
O16         Cu23   2.004       .  S
O16          C26   1.277       .  A
O17         Cu23   2.020       .  S
O17          C27   1.278       .  A
O18         Cu23   2.013       .  S
O18          C28   1.278       .  A
O19         Cu24   2.012       .  S
O19          C28   1.278       .  A
O20         Cu24   2.002       .  S
O20          C27   1.276       .  A
O21         Cu24   2.012       .  S
O21          C26   1.278       .  A
O22         Cu24   2.002       .  S
O22          C25   1.276       .  A
Cu23        Cu24   2.376       .  S
C25        C2300   1.466       .  S
C26        C2321   1.469       .  S
C27        C2282   1.466       .  S
C28        C2393   1.473       .  S
O29         Cu37   2.007       .  S
O29          C39   1.277       .  A
O30         Cu37   2.012       .  S
O30          C40   1.278       .  A
O31         Cu37   2.012       .  S
O31          C41   1.277       .  A
O32         Cu37   2.004       .  S
O32          C42   1.277       .  A
O33         Cu38   2.033       .  S
O33          C42   1.280       .  A
O34         Cu38   2.017       .  S
O34          C41   1.278       .  A
O35         Cu38   2.007       .  S
O35          C40   1.277       .  A
O36         Cu38   2.018       .  S
O36          C39   1.278       .  A
Cu37        Cu38   2.372       .  S
C39        C2246   1.468       .  S
C40        C2372   1.470       .  S
C41        C2228   1.467       .  S
C42        C2264   1.478       .  S
O43         Cu51   2.009       .  S
O43          C53   1.278       .  A
O44         Cu51   2.019       .  S
O44          C54   1.278       .  A
O45         Cu51   2.008       .  S
O45          C55   1.277       .  A
O46         Cu51   1.998       .  S
O46          C56   1.275       .  A
O47         Cu52   2.020       .  S
O47          C56   1.279       .  A
O48         Cu52   2.014       .  S
O48          C55   1.278       .  A
O49         Cu52   2.008       .  S
O49          C54   1.276       .  A
O50         Cu52   2.019       .  S
O50          C53   1.278       .  A
Cu51        Cu52   2.373       .  S
C53        C2267   1.475       .  S
C54        C2210   1.467       .  S
C55        C2318   1.471       .  S
C56        C2192   1.467       .  S
O57         Cu65   2.009       .  S
O57          C67   1.277       .  A
O58         Cu65   2.012       .  S
O58          C68   1.278       .  A
O59         Cu65   2.011       .  S
O59          C69   1.277       .  A
O60         Cu65   2.006       .  S
O60          C70   1.277       .  A
O61         Cu66   2.020       .  S
O61          C70   1.279       .  A
O62         Cu66   2.007       .  S
O62          C69   1.277       .  A
O63         Cu66   2.010       .  S
O63          C68   1.277       .  A
O64         Cu66   2.023       .  S
O64          C67   1.279       .  A
Cu65        Cu66   2.373       .  S
C67        C2138   1.472       .  S
C68        C2174   1.471       .  S
C69        C2357   1.464       .  S
C70        C2159   1.473       .  S
O71         Cu79   2.007       .  S
O71          C81   1.277       .  A
O72         Cu79   2.014       .  S
O72          C82   1.278       .  A
O73         Cu79   2.008       .  S
O73          C83   1.277       .  A
O74         Cu79   2.002       .  S
O74          C84   1.277       .  A
O75         Cu80   2.014       .  S
O75          C84   1.278       .  A
O76         Cu80   2.000       .  S
O76          C83   1.276       .  A
O77         Cu80   2.011       .  S
O77          C82   1.278       .  A
O78         Cu80   2.020       .  S
O78          C81   1.278       .  A
Cu79        Cu80   2.374       .  S
C81        C2084   1.470       .  S
C82        C2123   1.473       .  S
C83        C2102   1.463       .  S
C84        C2177   1.469       .  S
O85         Cu93   2.011       .  S
O85          C95   1.278       .  A
O86         Cu93   1.999       .  S
O86          C96   1.276       .  A
O87         Cu93   2.015       .  S
O87          C97   1.278       .  A
O88         Cu93   2.008       .  S
O88          C98   1.278       .  A
O89         Cu94   2.015       .  S
O89          C98   1.278       .  A
O90         Cu94   2.000       .  S
O90          C97   1.276       .  A
O91         Cu94   2.008       .  S
O91          C96   1.277       .  A
O92         Cu94   1.997       .  S
O92          C95   1.276       .  A
Cu93        Cu94   2.375       .  S
C95        C2069   1.467       .  S
C96        C2051   1.460       .  S
C97        C2285   1.465       .  S
C98        C2156   1.472       .  S
O99        Cu107   2.011       .  S
O99         C109   1.278       .  A
O100       Cu107   2.017       .  S
O100        C110   1.279       .  A
O101       Cu107   2.021       .  S
O101        C111   1.278       .  A
O102       Cu107   2.010       .  S
O102        C112   1.277       .  A
O103       Cu108   2.013       .  S
O103        C112   1.278       .  A
O104       Cu108   2.008       .  S
O104        C111   1.277       .  A
O105       Cu108   2.004       .  S
O105        C110   1.276       .  A
O106       Cu108   2.013       .  S
O106        C109   1.278       .  A
Cu107      Cu108   2.376       .  S
C109       C2120   1.473       .  S
C110       C2030   1.469       .  S
C111       C2012   1.470       .  S
C112       C2066   1.471       .  S
O113       Cu121   1.998       .  S
O113        C123   1.276       .  A
O114       Cu121   2.007       .  S
O114        C124   1.277       .  A
O115       Cu121   2.002       .  S
O115        C125   1.277       .  A
O116       Cu121   2.008       .  S
O116        C126   1.277       .  A
O117       Cu122   2.006       .  S
O117        C126   1.277       .  A
O118       Cu122   2.019       .  S
O118        C125   1.278       .  A
O119       Cu122   2.014       .  S
O119        C124   1.278       .  A
O120       Cu122   2.023       .  S
O120        C123   1.280       .  A
Cu121      Cu122   2.374       .  S
C123       C1997   1.472       .  S
C124       C1958   1.467       .  S
C125       C2249   1.467       .  S
C126       C1976   1.468       .  S
O127       Cu135   2.005       .  S
O127        C137   1.277       .  A
O128       Cu135   2.016       .  S
O128        C138   1.277       .  A
O129       Cu135   2.010       .  S
O129        C139   1.277       .  A
O130       Cu135   2.021       .  S
O130        C140   1.279       .  A
O131       Cu136   1.999       .  S
O131        C140   1.276       .  A
O132       Cu136   2.007       .  S
O132        C139   1.277       .  A
O133       Cu136   2.010       .  S
O133        C138   1.277       .  A
O134       Cu136   2.020       .  S
O134        C137   1.279       .  A
Cu135      Cu136   2.374       .  S
C137       C1994   1.473       .  S
C138       C1922   1.466       .  S
C139       C1904   1.465       .  S
C140       C1943   1.470       .  S
O141       Cu149   2.021       .  S
O141        C151   1.279       .  A
O142       Cu149   2.009       .  S
O142        C152   1.278       .  A
O143       Cu149   2.014       .  S
O143        C153   1.278       .  A
O144       Cu149   2.006       .  S
O144        C154   1.277       .  A
O145       Cu150   2.023       .  S
O145        C154   1.279       .  A
O146       Cu150   2.013       .  S
O146        C153   1.278       .  A
O147       Cu150   2.006       .  S
O147        C152   1.277       .  A
O148       Cu150   2.000       .  S
O148        C151   1.275       .  A
Cu149      Cu150   2.374       .  S
C151       C2339   1.466       .  S
C152       C1979   1.469       .  S
C153       C1886   1.472       .  S
C154       C1871   1.470       .  S
O155       Cu163   2.003       .  S
O155        C165   1.276       .  A
O156       Cu163   2.013       .  S
O156        C166   1.278       .  A
O157       Cu163   2.007       .  S
O157        C167   1.277       .  A
O158       Cu163   1.992       .  S
O158        C168   1.275       .  A
O159       Cu164   2.007       .  S
O159        C168   1.277       .  A
O160       Cu164   2.003       .  S
O160        C167   1.277       .  A
O161       Cu164   2.000       .  S
O161        C166   1.277       .  A
O162       Cu164   2.009       .  S
O162        C165   1.277       .  A
Cu163      Cu164   2.379       .  S
C165       C1850   1.462       .  S
C166       C1940   1.469       .  S
C167       C1889   1.468       .  S
C168       C1832   1.456       .  S
O169       Cu177   2.014       .  S
O169        C179   1.278       .  A
O170       Cu177   2.007       .  S
O170        C180   1.277       .  A
O171       Cu177   1.995       .  S
O171        C181   1.275       .  A
O172       Cu177   1.998       .  S
O172        C182   1.276       .  A
O173       Cu178   2.010       .  S
O173        C182   1.277       .  A
O174       Cu178   2.017       .  S
O174        C181   1.278       .  A
O175       Cu178   2.013       .  S
O175        C180   1.278       .  A
O176       Cu178   2.008       .  S
O176        C179   1.277       .  A
Cu177      Cu178   2.377       .  S
C179       C1814   1.471       .  S
C180       C1781   1.468       .  S
C181       C2213   1.464       .  S
C182       C1796   1.466       .  S
O183       Cu191   2.008       .  S
O183        C193   1.277       .  A
O184       Cu191   2.016       .  S
O184        C194   1.278       .  A
O185       Cu191   2.006       .  S
O185        C195   1.277       .  A
O186       Cu191   2.016       .  S
O186        C196   1.278       .  A
O187       Cu192   2.006       .  S
O187        C196   1.276       .  A
O188       Cu192   2.013       .  S
O188        C195   1.278       .  A
O189       Cu192   2.002       .  S
O189        C194   1.276       .  A
O190       Cu192   2.007       .  S
O190        C193   1.278       .  A
Cu191      Cu192   2.377       .  S
C193       C1817   1.469       .  S
C194       C1742   1.464       .  S
C195       C1760   1.470       .  S
C196       C1724   1.465       .  S
O197       Cu205   2.001       .  S
O197        C207   1.276       .  A
O198       Cu205   1.997       .  S
O198        C208   1.275       .  A
O199       Cu205   2.006       .  S
O199        C209   1.277       .  A
O200       Cu205   2.013       .  S
O200        C210   1.278       .  A
O201       Cu206   2.010       .  S
O201        C210   1.277       .  A
O202       Cu206   2.014       .  S
O202        C209   1.278       .  A
O203       Cu206   2.018       .  S
O203        C208   1.279       .  A
O204       Cu206   2.011       .  S
O204        C207   1.278       .  A
Cu205      Cu206   2.374       .  S
C207       C1799   1.467       .  S
C208       C2231   1.466       .  S
C209       C1706   1.470       .  S
C210       C1688   1.470       .  S
O211       Cu219   2.012       .  S
O211        C221   1.277       .  A
O212       Cu219   2.019       .  S
O212        C222   1.279       .  A
O213       Cu219   2.006       .  S
O213        C223   1.277       .  A
O214       Cu219   2.018       .  S
O214        C224   1.279       .  A
O215       Cu220   1.997       .  S
O215        C224   1.276       .  A
O216       Cu220   2.010       .  S
O216        C223   1.277       .  A
O217       Cu220   2.003       .  S
O217        C222   1.276       .  A
O218       Cu220   2.016       .  S
O218        C221   1.278       .  A
Cu219      Cu220   2.377       .  S
C221       C1673   1.470       .  S
C222       C1763   1.471       .  S
C223       C1652   1.463       .  S
C224       C1709   1.469       .  S
O225       Cu233   2.017       .  S
O225        C235   1.278       .  A
O226       Cu233   2.006       .  S
O226        C236   1.276       .  A
O227       Cu233   2.000       .  S
O227        C237   1.276       .  A
O228       Cu233   2.011       .  S
O228        C238   1.277       .  A
O229       Cu234   2.009       .  S
O229        C238   1.277       .  A
O230       Cu234   2.019       .  S
O230        C237   1.279       .  A
O231       Cu234   2.017       .  S
O231        C236   1.278       .  A
O232       Cu234   2.006       .  S
O232        C235   1.277       .  A
Cu233      Cu234   2.374       .  S
C235       C1634   1.472       .  S
C236       C1601   1.465       .  S
C237       C1616   1.471       .  S
C238       C2303   1.466       .  S
O239       Cu247   2.019       .  S
O239        C249   1.278       .  A
O240       Cu247   2.008       .  S
O240        C250   1.278       .  A
O241       Cu247   2.011       .  S
O241        C251   1.278       .  A
O242       Cu247   2.004       .  S
O242        C252   1.276       .  A
O243       Cu248   2.022       .  S
O243        C252   1.279       .  A
O244       Cu248   2.012       .  S
O244        C251   1.278       .  A
O245       Cu248   2.010       .  S
O245        C250   1.277       .  A
O246       Cu248   2.001       .  S
O246        C249   1.276       .  A
Cu247      Cu248   2.374       .  S
C249       C1544   1.467       .  S
C250       C1580   1.470       .  S
C251       C1637   1.472       .  S
C252       C1562   1.467       .  S
O253       Cu261   2.002       .  S
O253        C263   1.276       .  A
O254       Cu261   2.007       .  S
O254        C264   1.278       .  A
O255       Cu261   2.000       .  S
O255        C265   1.277       .  A
O256       Cu261   2.011       .  S
O256        C266   1.277       .  A
O257       Cu262   2.003       .  S
O257        C266   1.277       .  A
O258       Cu262   2.016       .  S
O258        C265   1.278       .  A
O259       Cu262   2.015       .  S
O259        C264   1.278       .  A
O260       Cu262   2.022       .  S
O260        C263   1.279       .  A
Cu261      Cu262   2.375       .  S
C263       C1490   1.466       .  S
C264       C1526   1.472       .  S
C265       C1583   1.469       .  S
C266       C1508   1.466       .  S
O267       Cu275   2.016       .  S
O267        C277   1.278       .  A
O268       Cu275   2.006       .  S
O268        C278   1.276       .  A
O269       Cu275   2.018       .  S
O269        C279   1.278       .  A
O270       Cu275   2.007       .  S
O270        C280   1.277       .  A
O271       Cu276   2.011       .  S
O271        C280   1.278       .  A
O272       Cu276   2.003       .  S
O272        C279   1.276       .  A
O273       Cu276   2.014       .  S
O273        C278   1.278       .  A
O274       Cu276   2.008       .  S
O274        C277   1.278       .  A
Cu275      Cu276   2.374       .  S
C277       C1619   1.472       .  S
C278       C2195   1.466       .  S
C279       C1475   1.466       .  S
C280       C1529   1.470       .  S
O281       Cu289   2.025       .  S
O281        C291   1.280       .  A
O282       Cu289   2.014       .  S
O282        C292   1.278       .  A
O283       Cu289   2.010       .  S
O283        C293   1.277       .  A
O284       Cu289   2.000       .  S
O284        C294   1.275       .  A
O285       Cu290   2.019       .  S
O285        C294   1.279       .  A
O286       Cu290   2.011       .  S
O286        C293   1.278       .  A
O287       Cu290   2.004       .  S
O287        C292   1.276       .  A
O288       Cu290   1.996       .  S
O288        C291   1.275       .  A
Cu289      Cu290   2.377       .  S
C291       C1454   1.471       .  S
C292       C2033   1.463       .  S
C293       C1439   1.471       .  S
C294       C1547   1.466       .  S
O295       Cu303   2.019       .  S
O295        C305   1.279       .  A
O296       Cu303   2.012       .  S
O296        C306   1.278       .  A
O297       Cu303   2.002       .  S
O297        C307   1.277       .  A
O298       Cu303   2.011       .  S
O298        C308   1.277       .  A
O299       Cu304   2.005       .  S
O299        C308   1.276       .  A
O300       Cu304   2.015       .  S
O300        C307   1.278       .  A
O301       Cu304   2.008       .  S
O301        C306   1.276       .  A
O302       Cu304   1.999       .  S
O302        C305   1.276       .  A
Cu303      Cu304   2.374       .  S
C305       C1457   1.471       .  S
C306       C2087   1.465       .  S
C307       C1418   1.470       .  S
C308       C1853   1.465       .  S
O309       Cu317   2.011       .  S
O309        C319   1.278       .  A
O310       Cu317   2.021       .  S
O310        C320   1.279       .  A
O311       Cu317   2.010       .  S
O311        C321   1.277       .  A
O312       Cu317   2.013       .  S
O312        C322   1.278       .  A
O313       Cu318   2.006       .  S
O313        C322   1.277       .  A
O314       Cu318   2.021       .  S
O314        C321   1.279       .  A
O315       Cu318   1.996       .  S
O315        C320   1.276       .  A
O316       Cu318   2.012       .  S
O316        C319   1.277       .  A
Cu317      Cu318   2.376       .  S
C319       C1670   1.468       .  S
C320       C1403   1.469       .  S
C321       C1907   1.470       .  S
C322       C1421   1.470       .  S
O323       Cu331   2.014       .  S
O323        C333   1.278       .  A
O324       Cu331   1.998       .  S
O324        C334   1.276       .  A
O325       Cu331   2.004       .  S
O325        C335   1.276       .  A
O326       Cu331   2.008       .  S
O326        C336   1.278       .  A
O327       Cu332   2.008       .  S
O327        C336   1.277       .  A
O328       Cu332   2.017       .  S
O328        C335   1.278       .  A
O329       Cu332   2.018       .  S
O329        C334   1.279       .  A
O330       Cu332   2.007       .  S
O330        C333   1.277       .  A
Cu331      Cu332   2.374       .  S
C333       C1727   1.468       .  S
C334       C1400   1.469       .  S
C335       C1511   1.465       .  S
C336       C1436   1.470       .  S
O337       Cu345   2.012       .  S
O337        C347   1.277       .  A
O338       Cu345   2.022       .  S
O338        C348   1.279       .  A
O339       Cu345   2.011       .  S
O339        C349   1.278       .  A
O340       Cu345   2.005       .  S
O340        C350   1.278       .  A
O341       Cu346   2.007       .  S
O341        C350   1.277       .  A
O342       Cu346   1.993       .  S
O342        C349   1.274       .  A
O343       Cu346   2.008       .  S
O343        C348   1.278       .  A
O344       Cu346   2.020       .  S
O344        C347   1.279       .  A
Cu345      Cu346   2.375       .  S
C347       C1868   1.471       .  S
C348       C1385   1.474       .  S
C349       C1346   1.459       .  S
C350       C1364   1.468       .  S
O351       Cu359   2.019       .  S
O351        C361   1.278       .  A
O352       Cu359   2.009       .  S
O352        C362   1.277       .  A
O353       Cu359   2.012       .  S
O353        C363   1.277       .  A
O354       Cu359   2.007       .  S
O354        C364   1.278       .  A
O355       Cu360   2.013       .  S
O355        C364   1.278       .  A
O356       Cu360   1.998       .  S
O356        C363   1.276       .  A
O357       Cu360   2.023       .  S
O357        C362   1.278       .  A
O358       Cu360   2.010       .  S
O358        C361   1.278       .  A
Cu359      Cu360   2.374       .  S
C361       C1328   1.473       .  S
C362       C1310   1.471       .  S
C363       C1835   1.462       .  S
C364       C1382   1.472       .  S
O365       Cu373   1.997       .  S
O365        C375   1.277       .  A
O366       Cu373   2.007       .  S
O366        C376   1.277       .  A
O367       Cu373   2.005       .  S
O367        C377   1.277       .  A
O368       Cu373   2.008       .  S
O368        C378   1.277       .  A
O369       Cu374   2.006       .  S
O369        C378   1.278       .  A
O370       Cu374   2.018       .  S
O370        C377   1.278       .  A
O371       Cu374   2.009       .  S
O371        C376   1.277       .  A
O372       Cu374   2.015       .  S
O372        C375   1.278       .  A
Cu373      Cu374   2.375       .  S
C375       C1331   1.469       .  S
C376       C1274   1.467       .  S
C377       C1565   1.469       .  S
C378       C1292   1.469       .  S
O379       Cu387   2.001       .  S
O379        C389   1.276       .  A
O380       Cu387   2.016       .  S
O380        C390   1.278       .  A
O381       Cu387   2.013       .  S
O381        C391   1.278       .  A
O382       Cu387   2.019       .  S
O382        C392   1.279       .  A
O383       Cu388   2.001       .  S
O383        C392   1.276       .  A
O384       Cu388   2.008       .  S
O384        C391   1.277       .  A
O385       Cu388   2.005       .  S
O385        C390   1.277       .  A
O386       Cu388   2.008       .  S
O386        C389   1.278       .  A
Cu387      Cu388   2.375       .  S
C389       C1367   1.466       .  S
C390       C1256   1.468       .  S
C391       C1598   1.470       .  S
C392       C1295   1.470       .  S
O393       Cu401   2.015       .  S
O393        C403   1.278       .  A
O394       Cu401   2.007       .  S
O394        C404   1.277       .  A
O395       Cu401   2.004       .  S
O395        C405   1.277       .  A
O396       Cu401   2.014       .  S
O396        C406   1.277       .  A
O397       Cu402   2.012       .  S
O397        C406   1.277       .  A
O398       Cu402   2.018       .  S
O398        C405   1.279       .  A
O399       Cu402   2.013       .  S
O399        C404   1.277       .  A
O400       Cu402   1.997       .  S
O400        C403   1.276       .  A
Cu401      Cu402   2.373       .  S
C403       C1220   1.467       .  S
C404       C1202   1.466       .  S
C405       C1241   1.471       .  S
C406       C1691   1.467       .  S
O407       Cu415   2.013       .  S
O407        C417   1.278       .  A
O408       Cu415   2.007       .  S
O408        C418   1.277       .  A
O409       Cu415   2.001       .  S
O409        C419   1.276       .  A
O410       Cu415   2.009       .  S
O410        C420   1.277       .  A
O411       Cu416   2.007       .  S
O411        C420   1.277       .  A
O412       Cu416   2.017       .  S
O412        C419   1.279       .  A
O413       Cu416   2.014       .  S
O413        C418   1.278       .  A
O414       Cu416   2.003       .  S
O414        C417   1.276       .  A
Cu415      Cu416   2.377       .  S
C417       C1166   1.463       .  S
C418       C1184   1.471       .  S
C419       C1238   1.470       .  S
C420       C1655   1.467       .  S
O421       Cu429   2.006       .  S
O421        C431   1.276       .  A
O422       Cu429   2.017       .  S
O422        C432   1.278       .  A
O423       Cu429   2.005       .  S
O423        C433   1.276       .  A
O424       Cu429   2.008       .  S
O424        C434   1.278       .  A
O425       Cu430   2.005       .  S
O425        C434   1.277       .  A
O426       Cu430   2.017       .  S
O426        C433   1.278       .  A
O427       Cu430   2.008       .  S
O427        C432   1.277       .  A
O428       Cu430   2.015       .  S
O428        C431   1.279       .  A
Cu429      Cu430   2.374       .  S
C431       C1148   1.470       .  S
C432       C2141   1.468       .  S
C433       C1133   1.468       .  S
C434       C1223   1.467       .  S
O435       Cu443   2.005       .  S
O435        C445   1.277       .  A
O436       Cu443   2.015       .  S
O436        C446   1.278       .  A
O437       Cu443   1.998       .  S
O437        C447   1.276       .  A
O438       Cu443   2.010       .  S
O438        C448   1.278       .  A
O439       Cu444   2.006       .  S
O439        C448   1.277       .  A
O440       Cu444   2.010       .  S
O440        C447   1.277       .  A
O441       Cu444   2.006       .  S
O441        C446   1.277       .  A
O442       Cu444   2.019       .  S
O442        C445   1.279       .  A
Cu443      Cu444   2.375       .  S
C445       C1187   1.472       .  S
C446       C1115   1.466       .  S
C447       C2105   1.459       .  S
C448       C1151   1.469       .  S
O449       Cu457   2.013       .  S
O449        C459   1.278       .  A
O450       Cu457   2.000       .  S
O450        C460   1.275       .  A
O451       Cu457   2.002       .  S
O451        C461   1.276       .  A
O452       Cu457   2.019       .  S
O452        C462   1.280       .  A
O453       Cu458   2.008       .  S
O453        C462   1.277       .  A
O454       Cu458   2.015       .  S
O454        C461   1.278       .  A
O455       Cu458   2.012       .  S
O455        C460   1.278       .  A
O456       Cu458   2.008       .  S
O456        C459   1.278       .  A
Cu457      Cu458   2.377       .  S
C459       C1079   1.472       .  S
C460       C1058   1.461       .  S
C461       C1472   1.465       .  S
C462       C1097   1.473       .  S
O463       Cu471   2.020       .  S
O463        C473   1.279       .  A
O464       Cu471   2.012       .  S
O464        C474   1.278       .  A
O465       Cu471   2.011       .  S
O465        C475   1.277       .  A
O466       Cu471   2.020       .  S
O466        C476   1.279       .  A
O467       Cu472   2.000       .  S
O467        C476   1.277       .  A
O468       Cu472   2.015       .  S
O468        C475   1.278       .  A
O469       Cu472   2.008       .  S
O469        C474   1.276       .  A
O470       Cu472   2.003       .  S
O470        C473   1.276       .  A
Cu471      Cu472   2.376       .  S
C473       C1040   1.471       .  S
C474       C1022   1.465       .  S
C475       C1493   1.470       .  S
C476       C1094   1.471       .  S
O477       Cu485   2.009       .  S
O477        C487   1.278       .  A
O478       Cu485   2.002       .  S
O478        C488   1.277       .  A
O479       Cu485   1.997       .  S
O479        C489   1.276       .  A
O480       Cu485   2.007       .  S
O480        C490   1.277       .  A
O481       Cu486   2.007       .  S
O481        C490   1.277       .  A
O482       Cu486   2.020       .  S
O482        C489   1.279       .  A
O483       Cu486   2.012       .  S
O483        C488   1.278       .  A
O484       Cu486   2.006       .  S
O484        C487   1.276       .  A
Cu485      Cu486   2.377       .  S
C487        C989   1.464       .  S
C488       C1043   1.469       .  S
C489       C1007   1.470       .  S
C490       C1925   1.466       .  S
O491       Cu499   2.006       .  S
O491        C501   1.277       .  A
O492       Cu499   2.018       .  S
O492        C502   1.278       .  A
O493       Cu499   2.009       .  S
O493        C503   1.277       .  A
O494       Cu499   2.016       .  S
O494        C504   1.279       .  A
O495       Cu500   2.004       .  S
O495        C504   1.276       .  A
O496       Cu500   2.009       .  S
O496        C503   1.277       .  A
O497       Cu500   2.015       .  S
O497        C502   1.278       .  A
O498       Cu500   2.024       .  S
O498        C501   1.279       .  A
Cu499      Cu500   2.372       .  S
C501       C1076   1.474       .  S
C502        C968   1.471       .  S
C503       C1961   1.465       .  S
C504       C1004   1.470       .  S
O505       Cu513   2.007       .  S
O505        C515   1.277       .  A
O506       Cu513   2.017       .  S
O506        C516   1.278       .  A
O507       Cu513   2.013       .  S
O507        C517   1.278       .  A
O508       Cu513   2.006       .  S
O508        C518   1.277       .  A
O509       Cu514   2.016       .  S
O509        C518   1.278       .  A
O510       Cu514   2.009       .  S
O510        C517   1.277       .  A
O511       Cu514   2.001       .  S
O511        C516   1.276       .  A
O512       Cu514   2.008       .  S
O512        C515   1.278       .  A
Cu513      Cu514   2.376       .  S
C515        C950   1.469       .  S
C516       C2048   1.466       .  S
C517        C914   1.469       .  S
C518        C935   1.472       .  S
O519       Cu527   2.008       .  S
O519        C529   1.278       .  A
O520       Cu527   2.015       .  S
O520        C530   1.278       .  A
O521       Cu527   2.004       .  S
O521        C531   1.277       .  A
O522       Cu527   2.009       .  S
O522        C532   1.277       .  A
O523       Cu528   2.014       .  S
O523        C532   1.278       .  A
O524       Cu528   2.028       .  S
O524        C531   1.279       .  A
O525       Cu528   1.999       .  S
O525        C530   1.276       .  A
O526       Cu528   2.010       .  S
O526        C529   1.277       .  A
Cu527      Cu528   2.374       .  S
C529        C896   1.470       .  S
C530        C881   1.465       .  S
C531       C2015   1.472       .  S
C532        C953   1.471       .  S
O533       Cu541   2.019       .  S
O533        C543   1.278       .  A
O534       Cu541   2.012       .  S
O534        C544   1.278       .  A
O535       Cu541   2.003       .  S
O535        C545   1.277       .  A
O536       Cu541   2.011       .  S
O536        C546   1.278       .  A
O537       Cu542   2.008       .  S
O537        C546   1.277       .  A
O538       Cu542   2.014       .  S
O538        C545   1.278       .  A
O539       Cu542   2.008       .  S
O539        C544   1.278       .  A
O540       Cu542   1.995       .  S
O540        C543   1.275       .  A
Cu541      Cu542   2.377       .  S
C543        C842   1.465       .  S
C544        C899   1.471       .  S
C545        C863   1.470       .  S
C546       C1745   1.467       .  S
O547       Cu555   2.007       .  S
O547        C557   1.276       .  A
O548       Cu555   2.002       .  S
O548        C558   1.276       .  A
O549       Cu555   1.998       .  S
O549        C559   1.276       .  A
O550       Cu555   2.009       .  S
O550        C560   1.277       .  A
O551       Cu556   2.010       .  S
O551        C560   1.277       .  A
O552       Cu556   2.024       .  S
O552        C559   1.279       .  A
O553       Cu556   2.023       .  S
O553        C558   1.280       .  A
O554       Cu556   2.009       .  S
O554        C557   1.277       .  A
Cu555      Cu556   2.377       .  S
C557        C824   1.464       .  S
C558        C932   1.473       .  S
C559        C860   1.472       .  S
C560       C1778   1.464       .  S
O561       Cu569   2.005       .  S
O561        C571   1.277       .  A
O562       Cu569   2.010       .  S
O562        C572   1.277       .  A
O563       Cu569   2.008       .  S
O563        C573   1.277       .  A
O564       Cu569   2.012       .  S
O564        C574   1.278       .  A
O565       Cu570   2.006       .  S
O565        C574   1.277       .  A
O566       Cu570   2.017       .  S
O566        C573   1.278       .  A
O567       Cu570   2.008       .  S
O567        C572   1.277       .  A
O568       Cu570   2.020       .  S
O568        C571   1.279       .  A
Cu569      Cu570   2.374       .  S
C571        C806   1.474       .  S
C572       C1349   1.465       .  S
C573       C1130   1.467       .  S
C574        C791   1.470       .  S
O575       Cu583   2.003       .  S
O575        C585   1.276       .  A
O576       Cu583   2.011       .  S
O576        C586   1.278       .  A
O577       Cu583   2.018       .  S
O577        C587   1.278       .  A
O578       Cu583   2.008       .  S
O578        C588   1.278       .  A
O579       Cu584   2.024       .  S
O579        C588   1.279       .  A
O580       Cu584   2.010       .  S
O580        C587   1.277       .  A
O581       Cu584   2.006       .  S
O581        C586   1.277       .  A
O582       Cu584   2.018       .  S
O582        C585   1.278       .  A
Cu583      Cu584   2.374       .  S
C585        C917   1.465       .  S
C586        C773   1.469       .  S
C587       C1259   1.468       .  S
C588        C809   1.476       .  S
O589       Cu597   1.995       .  S
O589        C599   1.275       .  A
O590       Cu597   2.010       .  S
O590        C600   1.278       .  A
O591       Cu597   2.013       .  S
O591        C601   1.278       .  A
O592       Cu597   2.006       .  S
O592        C602   1.277       .  A
O593       Cu598   2.008       .  S
O593        C602   1.277       .  A
O594       Cu598   1.998       .  S
O594        C601   1.276       .  A
O595       Cu598   2.006       .  S
O595        C600   1.277       .  A
O596       Cu598   2.010       .  S
O596        C599   1.277       .  A
Cu597      Cu598   2.378       .  S
C599       C1061   1.460       .  S
C600        C752   1.470       .  S
C601        C770   1.468       .  S
C602        C827   1.464       .  S
O603       Cu611   2.012       .  S
O603        C613   1.277       .  A
O604       Cu611   2.019       .  S
O604        C614   1.279       .  A
O605       Cu611   2.019       .  S
O605        C615   1.278       .  A
O606       Cu611   2.002       .  S
O606        C616   1.277       .  A
O607       Cu612   2.017       .  S
O607        C616   1.278       .  A
O608       Cu612   2.010       .  S
O608        C615   1.277       .  A
O609       Cu612   2.004       .  S
O609        C614   1.277       .  A
O610       Cu612   2.015       .  S
O610        C613   1.278       .  A
Cu611      Cu612   2.373       .  S
C613       C1205   1.469       .  S
C614        C788   1.472       .  S
C615        C971   1.470       .  S
C616        C755   1.471       .  S
O617       Cu625   2.015       .  S
O617        C627   1.278       .  A
O618       Cu625   2.010       .  S
O618        C628   1.277       .  A
O619       Cu625   2.006       .  S
O619        C629   1.276       .  A
O620       Cu625   2.011       .  S
O620        C630   1.277       .  A
O621       Cu626   2.009       .  S
O621        C630   1.277       .  A
O622       Cu626   2.027       .  S
O622        C629   1.280       .  A
O623       Cu626   2.013       .  S
O623        C628   1.277       .  A
O624       Cu626   1.998       .  S
O624        C627   1.276       .  A
Cu625      Cu626   2.373       .  S
C627        C716   1.468       .  S
C628       C1277   1.465       .  S
C629        C734   1.476       .  S
C630        C878   1.465       .  S
O631       Cu639   2.006       .  S
O631        C641   1.277       .  A
O632       Cu639   2.007       .  S
O632        C642   1.277       .  A
O633       Cu639   2.023       .  S
O633        C643   1.280       .  A
O634       Cu639   2.008       .  S
O634        C644   1.277       .  A
O635       Cu640   2.005       .  S
O635        C644   1.276       .  A
O636       Cu640   2.001       .  S
O636        C643   1.276       .  A
O637       Cu640   2.007       .  S
O637        C642   1.277       .  A
O638       Cu640   2.017       .  S
O638        C641   1.279       .  A
Cu639      Cu640   2.377       .  S
C641       C1025   1.469       .  S
C642        C698   1.469       .  S
C643        C737   1.473       .  S
C644        C845   1.461       .  S
O645       Cu653   2.000       .  S
O645        C655   1.276       .  A
O646       Cu653   2.010       .  S
O646        C656   1.278       .  A
O647       Cu653   2.006       .  S
O647        C657   1.277       .  A
O648       Cu653   2.014       .  S
O648        C658   1.278       .  A
O649       Cu654   2.008       .  S
O649        C658   1.277       .  A
O650       Cu654   2.010       .  S
O650        C657   1.278       .  A
O651       Cu654   2.012       .  S
O651        C656   1.277       .  A
O652       Cu654   2.018       .  S
O652        C655   1.279       .  A
Cu653      Cu654   2.374       .  S
C655       C1169   1.467       .  S
C656        C680   1.471       .  S
C657        C701   1.469       .  S
C658        C986   1.466       .  S
O659       Cu667   2.002       .  S
O659        C669   1.276       .  A
O660       Cu667   2.006       .  S
O660        C670   1.277       .  A
O661       Cu667   2.002       .  S
O661        C671   1.277       .  A
O662       Cu667   2.011       .  S
O662        C672   1.278       .  A
O663       Cu668   2.005       .  S
O663        C672   1.277       .  A
O664       Cu668   2.014       .  S
O664        C671   1.277       .  A
O665       Cu668   2.009       .  S
O665        C670   1.278       .  A
O666       Cu668   2.021       .  S
O666        C669   1.279       .  A
Cu667      Cu668   2.377       .  S
C669       C1313   1.469       .  S
C670        C719   1.468       .  S
C671       C1112   1.464       .  S
C672        C683   1.470       .  S
C673        C678   1.385       .  A
C673        C674   1.405       .  A
C673        N679   1.345       .  A
C674        C675   1.404       .  A
C674        H685   1.082       .  S
C675        C684   1.379       .  A
C675        C676   1.385       .  A
C676        C677   1.401       .  A
C676        N682   1.342       .  A
C677        C678   1.401       .  A
C677        H686   1.082       .  S
C678        C681   1.375       .  A
N679        C680   1.357       .  A
N679        H689   1.045       .  S
C680        C681   1.394       .  A
C681        H687   1.082       .  S
N682        C683   1.355       .  A
N682        H690   1.045       .  S
C683        C684   1.396       .  A
C684        H688   1.082       .  S
C691        C696   1.385       .  A
C691        C692   1.403       .  A
C691        N697   1.343       .  A
C692        C693   1.402       .  A
C692        H703   1.082       .  S
C693        C702   1.377       .  A
C693        C694   1.385       .  A
C694        C695   1.402       .  A
C694        N700   1.343       .  A
C695        C696   1.402       .  A
C695        H704   1.082       .  S
C696        C699   1.376       .  A
N697        C698   1.355       .  A
N697        H707   1.044       .  S
C698        C699   1.394       .  A
C699        H705   1.082       .  S
N700        C701   1.355       .  A
N700        H708   1.044       .  S
C701        C702   1.395       .  A
C702        H706   1.082       .  S
C709        C714   1.385       .  A
C709        C710   1.402       .  A
C709        N715   1.343       .  A
C710        C711   1.401       .  A
C710        H721   1.082       .  S
C711        C720   1.376       .  A
C711        C712   1.385       .  A
C712        C713   1.403       .  A
C712        N718   1.343       .  A
C713        C714   1.402       .  A
C713        H722   1.082       .  S
C714        C717   1.376       .  A
N715        C716   1.355       .  A
N715        H725   1.043       .  S
C716        C717   1.395       .  A
C717        H723   1.082       .  S
N718        C719   1.356       .  A
N718        H726   1.043       .  S
C719        C720   1.394       .  A
C720        H724   1.082       .  S
C727        C732   1.384       .  A
C727        C728   1.406       .  A
C727        N733   1.344       .  A
C728        C729   1.404       .  A
C728        H739   1.082       .  S
C729        C738   1.381       .  A
C729        C730   1.384       .  A
C730        C731   1.404       .  A
C730        N736   1.343       .  A
C731        C732   1.403       .  A
C731        H740   1.082       .  S
C732        C735   1.380       .  A
N733        C734   1.357       .  A
N733        H743   1.045       .  S
C734        C735   1.395       .  A
C735        H741   1.082       .  S
N736        C737   1.356       .  A
N736        H744   1.045       .  S
C737        C738   1.396       .  A
C738        H742   1.082       .  S
C745        C750   1.385       .  A
C745        C746   1.402       .  A
C745        N751   1.343       .  A
C746        C747   1.401       .  A
C746        H757   1.082       .  S
C747        C756   1.376       .  A
C747        C748   1.385       .  A
C748        C749   1.404       .  A
C748        N754   1.345       .  A
C749        C750   1.404       .  A
C749        H758   1.082       .  S
C750        C753   1.378       .  A
N751        C752   1.355       .  A
N751        H761   1.045       .  S
C752        C753   1.395       .  A
C753        H759   1.082       .  S
N754        C755   1.356       .  A
N754        H762   1.045       .  S
C755        C756   1.394       .  A
C756        H760   1.082       .  S
C763        C768   1.385       .  A
C763        C764   1.403       .  A
C763        N769   1.343       .  A
C764        C765   1.402       .  A
C764        H775   1.082       .  S
C765        C774   1.377       .  A
C765        C766   1.385       .  A
C766        C767   1.402       .  A
C766        N772   1.343       .  A
C767        C768   1.402       .  A
C767        H776   1.082       .  S
C768        C771   1.376       .  A
N769        C770   1.355       .  A
N769        H779   1.045       .  S
C770        C771   1.395       .  A
C771        H777   1.082       .  S
N772        C773   1.355       .  A
N772        H780   1.045       .  S
C773        C774   1.395       .  A
C774        H778   1.082       .  S
C781        C786   1.384       .  A
C781        C782   1.403       .  A
C781        N787   1.343       .  A
C782        C783   1.402       .  A
C782        H793   1.082       .  S
C783        C792   1.377       .  A
C783        C784   1.384       .  A
C784        C785   1.404       .  A
C784        N790   1.344       .  A
C785        C786   1.403       .  A
C785        H794   1.082       .  S
C786        C789   1.379       .  A
N787        C788   1.356       .  A
N787        H797   1.044       .  S
C788        C789   1.396       .  A
C789        H795   1.082       .  S
N790        C791   1.356       .  A
N790        H798   1.044       .  S
C791        C792   1.394       .  A
C792        H796   1.082       .  S
C799        C804   1.385       .  A
C799        C800   1.403       .  A
C799        N805   1.344       .  A
C800        C801   1.403       .  A
C800        H811   1.082       .  S
C801        C810   1.377       .  A
C801        C802   1.384       .  A
C802        C803   1.406       .  A
C802        N808   1.346       .  A
C803        C804   1.406       .  A
C803        H812   1.082       .  S
C804        C807   1.380       .  A
N805        C806   1.355       .  A
N805        H815   1.046       .  S
C806        C807   1.397       .  A
C807        H813   1.082       .  S
N808        C809   1.357       .  A
N808        H816   1.045       .  S
C809        C810   1.395       .  A
C810        H814   1.082       .  S
C817        C822   1.385       .  A
C817        C818   1.402       .  A
C817        N823   1.342       .  A
C818        C819   1.401       .  A
C818        H829   1.082       .  S
C819        C828   1.376       .  A
C819        C820   1.385       .  A
C820        C821   1.403       .  A
C820        N826   1.343       .  A
C821        C822   1.403       .  A
C821        H830   1.082       .  S
C822        C825   1.378       .  A
N823        C824   1.354       .  A
N823        H833   1.044       .  S
C824        C825   1.394       .  A
C825        H831   1.082       .  S
N826        C827   1.355       .  A
N826        H834   1.044       .  S
C827        C828   1.392       .  A
C828        H832   1.082       .  S
C835        C840   1.385       .  A
C835        C836   1.400       .  A
C835        N841   1.339       .  A
C836        C837   1.398       .  A
C836        H847   1.082       .  S
C837        C846   1.375       .  A
C837        C838   1.385       .  A
C838        C839   1.405       .  A
C838        N844   1.343       .  A
C839        C840   1.404       .  A
C839        H848   1.082       .  S
C840        C843   1.381       .  A
N841        C842   1.353       .  A
N841        H851   1.044       .  S
C842        C843   1.395       .  A
C843        H849   1.082       .  S
N844        C845   1.355       .  A
N844        H852   1.045       .  S
C845        C846   1.390       .  A
C846        H850   1.082       .  S
C853        C858   1.385       .  A
C853        C854   1.404       .  A
C853        N859   1.346       .  A
C854        C855   1.404   1_554  A
C854        H865   1.082       .  S
C855        C864   1.377       .  A
C855        C856   1.385       .  A
C856        C857   1.402   1_556  A
C856        N862   1.344       .  A
C857        C858   1.402       .  A
C857        H866   1.082       .  S
C858        C861   1.375       .  A
N859        C860   1.356       .  A
N859        H869   1.043       .  S
C860        C861   1.395       .  A
C861        H867   1.082       .  S
N862        C863   1.355       .  A
N862        H870   1.043       .  S
C863        C864   1.395       .  A
C864        H868   1.082       .  S
C871        C876   1.385       .  A
C871        C872   1.400       .  A
C871        N877   1.341       .  A
C872        C873   1.399       .  A
C872        H883   1.082       .  S
C873        C882   1.374       .  A
C873        C874   1.385       .  A
C874        C875   1.405       .  A
C874        N880   1.345       .  A
C875        C876   1.404       .  A
C875        H884   1.082       .  S
C876        C879   1.380       .  A
N877        C878   1.353       .  A
N877        H887   1.045       .  S
C878        C879   1.395       .  A
C879        H885   1.082       .  S
N880        C881   1.355       .  A
N880        H888   1.045       .  S
C881        C882   1.392       .  A
C882        H886   1.082       .  S
C889        C894   1.385       .  A
C889        C890   1.402       .  A
C889        N895   1.342       .  A
C890        C891   1.401   1_455  A
C890        H901   1.082       .  S
C891        C900   1.377       .  A
C891        C892   1.384       .  A
C892        C893   1.405   1_655  A
C892        N898   1.344       .  A
C893        C894   1.404       .  A
C893        H902   1.082       .  S
C894        C897   1.380       .  A
N895        C896   1.355       .  A
N895        H905   1.044       .  S
C896        C897   1.396       .  A
C897        H903   1.082       .  S
N898        C899   1.356       .  A
N898        H906   1.044       .  S
C899        C900   1.394       .  A
C900        H904   1.082       .  S
C907        C912   1.385       .  A
C907        C908   1.403       .  A
C907        N913   1.343       .  A
C908        C909   1.402       .  A
C908        H919   1.082       .  S
C909        C918   1.378       .  A
C909        C910   1.385       .  A
C910        C911   1.404       .  A
C910        N916   1.344       .  A
C911        C912   1.403       .  A
C911        H920   1.082       .  S
C912        C915   1.379       .  A
N913        C914   1.355       .  A
N913        H923   1.045       .  S
C914        C915   1.395       .  A
C915        H921   1.082       .  S
N916        C917   1.355       .  A
N916        H924   1.045       .  S
C917        C918   1.393       .  A
C918        H922   1.082       .  S
C925        C930   1.384       .  A
C925        C926   1.404       .  A
C925        N931   1.343       .  A
C926        C927   1.402   1_655  A
C926        H937   1.082       .  S
C927        C936   1.378       .  A
C927        C928   1.384       .  A
C928        C929   1.404       .  A
C928        N934   1.344       .  A
C929        C930   1.403   1_455  A
C929        H938   1.082       .  S
C930        C933   1.380       .  A
N931        C932   1.356       .  A
N931        H941   1.044       .  S
C932        C933   1.396       .  A
C933        H939   1.082       .  S
N934        C935   1.356       .  A
N934        H942   1.044       .  S
C935        C936   1.395       .  A
C936        H940   1.082       .  S
C943        C948   1.385       .  A
C943        C944   1.404       .  A
C943        N949   1.344       .  A
C944        C945   1.403   1_554  A
C944        H955   1.082       .  S
C945        C954   1.379       .  A
C945        C946   1.385       .  A
C946        C947   1.402   1_556  A
C946        N952   1.343       .  A
C947        C948   1.401       .  A
C947        H956   1.082       .  S
C948        C951   1.376       .  A
N949        C950   1.356       .  A
N949        H959   1.044       .  S
C950        C951   1.394       .  A
C951        H957   1.082       .  S
N952        C953   1.355       .  A
N952        H960   1.044       .  S
C953        C954   1.396       .  A
C954        H958   1.082       .  S
C961        C966   1.385       .  A
C961        C962   1.406       .  A
C961        N967   1.345       .  A
C962        C963   1.405       .  A
C962        H973   1.082       .  S
C963        C972   1.381       .  A
C963        C964   1.385       .  A
C964        C965   1.404       .  A
C964        N970   1.343       .  A
C965        C966   1.403       .  A
C965        H974   1.082       .  S
C966        C969   1.379       .  A
N967        C968   1.356       .  A
N967        H977   1.044       .  S
C968        C969   1.394       .  A
C969        H975   1.082       .  S
N970        C971   1.355       .  A
N970        H978   1.045       .  S
C971        C972   1.395       .  A
C972        H976   1.082       .  S
C979        C984   1.385       .  A
C979        C980   1.401       .  A
C979        N985   1.342       .  A
C980        C981   1.400       .  A
C980        H991   1.082       .  S
C981        C990   1.375       .  A
C981        C982   1.385       .  A
C982        C983   1.404       .  A
C982        N988   1.344       .  A
C983        C984   1.404       .  A
C983        H992   1.082       .  S
C984        C987   1.379       .  A
N985        C986   1.354       .  A
N985        H995   1.045       .  S
C986        C987   1.395       .  A
C987        H993   1.082       .  S
N988        C989   1.355       .  A
N988        H996   1.044       .  S
C989        C990   1.392       .  A
C990        H994   1.082       .  S
C997       C1002   1.385       .  A
C997        C998   1.403   1_554  A
C997       N1003   1.343       .  A
C998        C999   1.402       .  A
C998       H1009   1.082       .  S
C999       C1008   1.376       .  A
C999       C1000   1.385       .  A
C1000      C1001   1.403       .  A
C1000      N1006   1.344       .  A
C1001      C1002   1.402   1_556  A
C1001      H1010   1.082       .  S
C1002      C1005   1.378       .  A
N1003      C1004   1.356       .  A
N1003      H1013   1.044       .  S
C1004      C1005   1.395       .  A
C1005      H1011   1.082       .  S
N1006      C1007   1.355       .  A
N1006      H1014   1.043       .  S
C1007      C1008   1.395       .  A
C1008      H1012   1.082       .  S
C1015      C1020   1.385       .  A
C1015      C1016   1.404       .  A
C1015      N1021   1.344       .  A
C1016      C1017   1.403       .  A
C1016      H1027   1.082       .  S
C1017      C1026   1.379       .  A
C1017      C1018   1.385       .  A
C1018      C1019   1.403       .  A
C1018      N1024   1.343       .  A
C1019      C1020   1.402       .  A
C1019      H1028   1.082       .  S
C1020      C1023   1.378       .  A
N1021      C1022   1.355       .  A
N1021      H1031   1.044       .  S
C1022      C1023   1.392       .  A
C1023      H1029   1.082       .  S
N1024      C1025   1.355       .  A
N1024      H1032   1.045       .  S
C1025      C1026   1.394       .  A
C1026      H1030   1.082       .  S
C1033      C1038   1.385       .  A
C1033      C1034   1.403       .  A
C1033      N1039   1.343       .  A
C1034      C1035   1.402   1_565  A
C1034      H1045   1.082       .  S
C1035      C1044   1.377       .  A
C1035      C1036   1.385       .  A
C1036      C1037   1.403       .  A
C1036      N1042   1.343       .  A
C1037      C1038   1.402   1_545  A
C1037      H1046   1.082       .  S
C1038      C1041   1.378       .  A
N1039      C1040   1.356       .  A
N1039      H1049   1.045       .  S
C1040      C1041   1.395       .  A
C1041      H1047   1.082       .  S
N1042      C1043   1.355       .  A
N1042      H1050   1.046       .  S
C1043      C1044   1.395       .  A
C1044      H1048   1.082       .  S
C1051      C1056   1.385       .  A
C1051      C1052   1.403       .  A
C1051      N1057   1.342       .  A
C1052      C1053   1.402       .  A
C1052      H1063   1.082       .  S
C1053      C1062   1.377       .  A
C1053      C1054   1.386       .  A
C1054      C1055   1.400       .  A
C1054      N1060   1.341       .  A
C1055      C1056   1.399       .  A
C1055      H1064   1.082       .  S
C1056      C1059   1.375       .  A
N1057      C1058   1.355       .  A
N1057      H1067   1.044       .  S
C1058      C1059   1.391       .  A
C1059      H1065   1.082       .  S
N1060      C1061   1.353       .  A
N1060      H1068   1.045       .  S
C1061      C1062   1.393       .  A
C1062      H1066   1.082       .  S
C1069      C1074   1.384       .  A
C1069      C1070   1.406       .  A
C1069      N1075   1.346       .  A
C1070      C1071   1.406   1_545  A
C1070      H1081   1.082       .  S
C1071      C1080   1.381       .  A
C1071      C1072   1.385       .  A
C1072      C1073   1.402   1_565  A
C1072      N1078   1.343       .  A
C1073      C1074   1.401       .  A
C1073      H1082   1.082       .  S
C1074      C1077   1.376       .  A
N1075      C1076   1.357       .  A
N1075      H1085   1.045       .  S
C1076      C1077   1.395       .  A
C1077      H1083   1.082       .  S
N1078      C1079   1.355       .  A
N1078      H1086   1.045       .  S
C1079      C1080   1.397       .  A
C1080      H1084   1.082       .  S
C1087      C1092   1.385       .  A
C1087      C1088   1.401       .  A
C1087      N1093   1.341       .  A
C1088      C1089   1.400   1_556  A
C1088      H1099   1.082       .  S
C1089      C1098   1.377       .  A
C1089      C1090   1.384       .  A
C1090      C1091   1.407       .  A
C1090      N1096   1.345       .  A
C1091      C1092   1.405   1_554  A
C1091      H1100   1.082       .  S
C1092      C1095   1.382       .  A
N1093      C1094   1.354       .  A
N1093      H1103   1.046       .  S
C1094      C1095   1.397       .  A
C1095      H1101   1.082       .  S
N1096      C1097   1.357       .  A
N1096      H1104   1.046       .  S
C1097      C1098   1.394       .  A
C1098      H1102   1.082       .  S
C1105      C1110   1.385       .  A
C1105      C1106   1.405       .  A
C1105      N1111   1.345       .  A
C1106      C1107   1.405       .  A
C1106      H1117   1.082       .  S
C1107      C1116   1.379       .  A
C1107      C1108   1.385       .  A
C1108      C1109   1.401       .  A
C1108      N1114   1.342       .  A
C1109      C1110   1.400       .  A
C1109      H1118   1.082       .  S
C1110      C1113   1.374       .  A
N1111      C1112   1.355       .  A
N1111      H1121   1.045       .  S
C1112      C1113   1.391       .  A
C1113      H1119   1.082       .  S
N1114      C1115   1.353       .  A
N1114      H1122   1.045       .  S
C1115      C1116   1.395       .  A
C1116      H1120   1.082       .  S
C1123      C1128   1.385       .  A
C1123      C1124   1.404       .  A
C1123      N1129   1.345       .  A
C1124      C1125   1.404       .  A
C1124      H1135   1.082       .  S
C1125      C1134   1.379       .  A
C1125      C1126   1.385       .  A
C1126      C1127   1.403       .  A
C1126      N1132   1.343       .  A
C1127      C1128   1.402       .  A
C1127      H1136   1.082       .  S
C1128      C1131   1.378       .  A
N1129      C1130   1.355       .  A
N1129      H1139   1.044       .  S
C1130      C1131   1.393       .  A
C1131      H1137   1.082       .  S
N1132      C1133   1.355       .  A
N1132      H1140   1.044       .  S
C1133      C1134   1.394       .  A
C1134      H1138   1.082       .  S
C1141      C1146   1.385       .  A
C1141      C1142   1.404   1_554  A
C1141      N1147   1.344       .  A
C1142      C1143   1.403       .  A
C1142      H1153   1.082       .  S
C1143      C1152   1.378       .  A
C1143      C1144   1.385       .  A
C1144      C1145   1.402       .  A
C1144      N1150   1.342       .  A
C1145      C1146   1.401   1_556  A
C1145      H1154   1.082       .  S
C1146      C1149   1.376       .  A
N1147      C1148   1.356       .  A
N1147      H1157   1.045       .  S
C1148      C1149   1.394       .  A
C1149      H1155   1.082       .  S
N1150      C1151   1.355       .  A
N1150      H1158   1.045       .  S
C1151      C1152   1.395       .  A
C1152      H1156   1.082       .  S
C1159      C1164   1.385       .  A
C1159      C1160   1.404       .  A
C1159      N1165   1.344       .  A
C1160      C1161   1.403       .  A
C1160      H1171   1.082       .  S
C1161      C1170   1.378       .  A
C1161      C1162   1.385       .  A
C1162      C1163   1.402       .  A
C1162      N1168   1.343       .  A
C1163      C1164   1.401       .  A
C1163      H1172   1.082       .  S
C1164      C1167   1.377       .  A
N1165      C1166   1.355       .  A
N1165      H1175   1.044       .  S
C1166      C1167   1.392       .  A
C1167      H1173   1.082       .  S
N1168      C1169   1.354       .  A
N1168      H1176   1.045       .  S
C1169      C1170   1.395       .  A
C1170      H1174   1.082       .  S
C1177      C1182   1.385       .  A
C1177      C1178   1.404       .  A
C1177      N1183   1.343       .  A
C1178      C1179   1.402   1_655  A
C1178      H1189   1.082       .  S
C1179      C1188   1.379       .  A
C1179      C1180   1.384       .  A
C1180      C1181   1.404       .  A
C1180      N1186   1.343       .  A
C1181      C1182   1.403   1_455  A
C1181      H1190   1.082       .  S
C1182      C1185   1.379       .  A
N1183      C1184   1.355       .  A
N1183      H1193   1.047       .  S
C1184      C1185   1.396       .  A
C1185      H1191   1.082       .  S
N1186      C1187   1.356       .  A
N1186      H1194   1.047       .  S
C1187      C1188   1.395       .  A
C1188      H1192   1.082       .  S
C1195      C1200   1.385       .  A
C1195      C1196   1.406       .  A
C1195      N1201   1.346       .  A
C1196      C1197   1.406       .  A
C1196      H1207   1.082       .  S
C1197      C1206   1.381       .  A
C1197      C1198   1.385       .  A
C1198      C1199   1.401       .  A
C1198      N1204   1.342       .  A
C1199      C1200   1.400       .  A
C1199      H1208   1.082       .  S
C1200      C1203   1.375       .  A
N1201      C1202   1.356       .  A
N1201      H1211   1.045       .  S
C1202      C1203   1.391       .  A
C1203      H1209   1.082       .  S
N1204      C1205   1.353       .  A
N1204      H1212   1.045       .  S
C1205      C1206   1.396       .  A
C1206      H1210   1.082       .  S
C1213      C1218   1.385       .  A
C1213      C1214   1.400   1_655  A
C1213      N1219   1.340       .  A
C1214      C1215   1.399       .  A
C1214      H1225   1.082       .  S
C1215      C1224   1.375       .  A
C1215      C1216   1.385       .  A
C1216      C1217   1.404       .  A
C1216      N1222   1.343       .  A
C1217      C1218   1.403   1_455  A
C1217      H1226   1.082       .  S
C1218      C1221   1.380       .  A
N1219      C1220   1.354       .  A
N1219      H1229   1.045       .  S
C1220      C1221   1.396       .  A
C1221      H1227   1.082       .  S
N1222      C1223   1.356       .  A
N1222      H1230   1.045       .  S
C1223      C1224   1.393       .  A
C1224      H1228   1.082       .  S
C1231      C1236   1.384       .  A
C1231      C1232   1.403       .  A
C1231      N1237   1.342       .  A
C1232      C1233   1.402   1_556  A
C1232      H1243   1.082       .  S
C1233      C1242   1.377       .  A
C1233      C1234   1.385       .  A
C1234      C1235   1.404   1_554  A
C1234      N1240   1.344       .  A
C1235      C1236   1.403       .  A
C1235      H1244   1.082       .  S
C1236      C1239   1.379       .  A
N1237      C1238   1.355       .  A
N1237      H1247   1.044       .  S
C1238      C1239   1.395       .  A
C1239      H1245   1.082       .  S
N1240      C1241   1.356       .  A
N1240      H1248   1.043       .  S
C1241      C1242   1.395       .  A
C1242      H1246   1.082       .  S
C1249      C1254   1.385       .  A
C1249      C1250   1.405       .  A
C1249      N1255   1.345       .  A
C1250      C1251   1.404       .  A
C1250      H1261   1.082       .  S
C1251      C1260   1.380       .  A
C1251      C1252   1.385       .  A
C1252      C1253   1.402       .  A
C1252      N1258   1.343       .  A
C1253      C1254   1.402       .  A
C1253      H1262   1.082       .  S
C1254      C1257   1.377       .  A
N1255      C1256   1.356       .  A
N1255      H1265   1.044       .  S
C1256      C1257   1.393       .  A
C1257      H1263   1.082       .  S
N1258      C1259   1.354       .  A
N1258      H1266   1.045       .  S
C1259      C1260   1.395       .  A
C1260      H1264   1.082       .  S
C1267      C1272   1.385       .  A
C1267      C1268   1.405       .  A
C1267      N1273   1.344       .  A
C1268      C1269   1.404       .  A
C1268      H1279   1.082       .  S
C1269      C1278   1.380       .  A
C1269      C1270   1.385       .  A
C1270      C1271   1.402       .  A
C1270      N1276   1.342       .  A
C1271      C1272   1.401       .  A
C1271      H1280   1.082       .  S
C1272      C1275   1.377       .  A
N1273      C1274   1.355       .  A
N1273      H1283   1.044       .  S
C1274      C1275   1.393       .  A
C1275      H1281   1.082       .  S
N1276      C1277   1.353       .  A
N1276      H1284   1.045       .  S
C1277      C1278   1.395       .  A
C1278      H1282   1.082       .  S
C1285      C1290   1.385       .  A
C1285      C1286   1.403   1_556  A
C1285      N1291   1.343       .  A
C1286      C1287   1.403       .  A
C1286      H1297   1.082       .  S
C1287      C1296   1.377       .  A
C1287      C1288   1.385       .  A
C1288      C1289   1.402       .  A
C1288      N1294   1.343       .  A
C1289      C1290   1.402   1_554  A
C1289      H1298   1.082       .  S
C1290      C1293   1.377       .  A
N1291      C1292   1.355       .  A
N1291      H1301   1.045       .  S
C1292      C1293   1.394       .  A
C1293      H1299   1.082       .  S
N1294      C1295   1.355       .  A
N1294      H1302   1.045       .  S
C1295      C1296   1.396       .  A
C1296      H1300   1.082       .  S
C1303      C1308   1.385       .  A
C1303      C1304   1.406       .  A
C1303      N1309   1.347       .  A
C1304      C1305   1.406       .  A
C1304      H1315   1.082       .  S
C1305      C1314   1.382       .  A
C1305      C1306   1.385       .  A
C1306      C1307   1.403       .  A
C1306      N1312   1.343       .  A
C1307      C1308   1.402       .  A
C1307      H1316   1.082       .  S
C1308      C1311   1.377       .  A
N1309      C1310   1.357       .  A
N1309      H1319   1.044       .  S
C1310      C1311   1.393       .  A
C1311      H1317   1.082       .  S
N1312      C1313   1.355       .  A
N1312      H1320   1.044       .  S
C1313      C1314   1.395       .  A
C1314      H1318   1.082       .  S
C1321      C1326   1.385       .  A
C1321      C1322   1.401   1_545  A
C1321      N1327   1.341       .  A
C1322      C1323   1.399       .  A
C1322      H1333   1.082   1_565  S
C1323      C1332   1.374       .  A
C1323      C1324   1.385       .  A
C1324      C1325   1.405       .  A
C1324      N1330   1.345       .  A
C1325      C1326   1.405   1_565  A
C1325      H1334   1.082       .  S
C1326      C1329   1.381       .  A
N1327      C1328   1.355       .  A
N1327      H1337   1.045       .  S
C1328      C1329   1.397       .  A
C1329      H1335   1.082       .  S
N1330      C1331   1.356       .  A
N1330      H1338   1.046       .  S
C1331      C1332   1.393       .  A
C1332      H1336   1.083       .  S
C1339      C1344   1.386       .  A
C1339      C1340   1.401       .  A
C1339      N1345   1.341       .  A
C1340      C1341   1.401       .  A
C1340      H1351   1.082       .  S
C1341      C1350   1.376       .  A
C1341      C1342   1.385       .  A
C1342      C1343   1.402       .  A
C1342      N1348   1.343       .  A
C1343      C1344   1.401       .  A
C1343      H1352   1.082       .  S
C1344      C1347   1.377       .  A
N1345      C1346   1.353       .  A
N1345      H1355   1.045       .  S
C1346      C1347   1.392       .  A
C1347      H1353   1.082       .  S
N1348      C1349   1.355       .  A
N1348      H1356   1.045       .  S
C1349      C1350   1.393       .  A
C1350      H1354   1.082       .  S
C1357      C1362   1.385       .  A
C1357      C1358   1.399       .  A
C1357      N1363   1.340       .  A
C1358      C1359   1.398   1_545  A
C1358      H1369   1.082       .  S
C1359      C1368   1.374       .  A
C1359      C1360   1.385       .  A
C1360      C1361   1.405   1_565  A
C1360      N1366   1.343       .  A
C1361      C1362   1.404       .  A
C1361      H1370   1.082       .  S
C1362      C1365   1.379       .  A
N1363      C1364   1.353       .  A
N1363      H1373   1.045       .  S
C1364      C1365   1.397       .  A
C1365      H1371   1.082       .  S
N1366      C1367   1.356       .  A
N1366      H1374   1.045       .  S
C1367      C1368   1.392       .  A
C1368      H1372   1.082       .  S
C1375      C1380   1.384       .  A
C1375      C1376   1.406       .  A
C1375      N1381   1.345       .  A
C1376      C1377   1.405   1_556  A
C1376      H1387   1.082       .  S
C1377      C1386   1.382       .  A
C1377      C1378   1.384       .  A
C1378      C1379   1.403       .  A
C1378      N1384   1.342       .  A
C1379      C1380   1.401   1_554  A
C1379      H1388   1.082       .  S
C1380      C1383   1.377       .  A
N1381      C1382   1.357       .  A
N1381      H1391   1.043       .  S
C1382      C1383   1.394       .  A
C1383      H1389   1.082       .  S
N1384      C1385   1.355       .  A
N1384      H1392   1.044       .  S
C1385      C1386   1.397       .  A
C1386      H1390   1.082       .  S
C1393      C1398   1.385       .  A
C1393      C1394   1.401       .  A
C1393      N1399   1.340       .  A
C1394      C1395   1.399   1_565  A
C1394      H1405   1.082       .  S
C1395      C1404   1.374       .  A
C1395      C1396   1.385       .  A
C1396      C1397   1.405   1_545  A
C1396      N1402   1.345       .  A
C1397      C1398   1.404       .  A
C1397      H1406   1.082       .  S
C1398      C1401   1.380       .  A
N1399      C1400   1.354       .  A
N1399      H1409   1.044       .  S
C1400      C1401   1.396       .  A
C1401      H1407   1.082       .  S
N1402      C1403   1.356       .  A
N1402      H1410   1.043       .  S
C1403      C1404   1.394       .  A
C1404      H1408   1.083       .  S
C1411      C1416   1.385       .  A
C1411      C1412   1.404   1_455  A
C1411      N1417   1.344       .  A
C1412      C1413   1.403       .  A
C1412      H1423   1.082       .  S
C1413      C1422   1.379       .  A
C1413      C1414   1.385       .  A
C1414      C1415   1.402       .  A
C1414      N1420   1.342       .  A
C1415      C1416   1.402   1_655  A
C1415      H1424   1.082       .  S
C1416      C1419   1.377       .  A
N1417      C1418   1.355       .  A
N1417      H1427   1.045       .  S
C1418      C1419   1.395       .  A
C1419      H1425   1.082       .  S
N1420      C1421   1.355       .  A
N1420      H1428   1.045       .  S
C1421      C1422   1.396       .  A
C1422      H1426   1.082       .  S
C1429      C1434   1.385       .  A
C1429      C1430   1.403       .  A
C1429      N1435   1.343       .  A
C1430      C1431   1.403   1_655  A
C1430      H1441   1.082       .  S
C1431      C1440   1.378       .  A
C1431      C1432   1.385       .  A
C1432      C1433   1.403   1_455  A
C1432      N1438   1.343       .  A
C1433      C1434   1.402       .  A
C1433      H1442   1.082       .  S
C1434      C1437   1.377       .  A
N1435      C1436   1.356       .  A
N1435      H1445   1.046       .  S
C1436      C1437   1.395       .  A
C1437      H1443   1.082       .  S
N1438      C1439   1.355       .  A
N1438      H1446   1.045       .  S
C1439      C1440   1.396       .  A
C1440      H1444   1.082       .  S
C1447      C1452   1.384       .  A
C1447      C1448   1.405       .  A
C1447      N1453   1.342       .  A
C1448      C1449   1.403   1_565  A
C1448      H1459   1.082       .  S
C1449      C1458   1.381       .  A
C1449      C1450   1.384       .  A
C1450      C1451   1.403   1_545  A
C1450      N1456   1.341       .  A
C1451      C1452   1.401       .  A
C1451      H1460   1.082       .  S
C1452      C1455   1.379       .  A
N1453      C1454   1.357       .  A
N1453      H1463   1.045       .  S
C1454      C1455   1.394       .  A
C1455      H1461   1.082       .  S
N1456      C1457   1.355       .  A
N1456      H1464   1.045       .  S
C1457      C1458   1.396       .  A
C1458      H1462   1.082       .  S
C1465      C1470   1.385       .  A
C1465      C1466   1.402       .  A
C1465      N1471   1.342       .  A
C1466      C1467   1.401       .  A
C1466      H1477   1.082       .  S
C1467      C1476   1.377       .  A
C1467      C1468   1.385       .  A
C1468      C1469   1.404       .  A
C1468      N1474   1.344       .  A
C1469      C1470   1.403       .  A
C1469      H1478   1.082       .  S
C1470      C1473   1.379       .  A
N1471      C1472   1.354       .  A
N1471      H1481   1.046       .  S
C1472      C1473   1.394       .  A
C1473      H1479   1.082       .  S
N1474      C1475   1.355       .  A
N1474      H1482   1.045       .  S
C1475      C1476   1.393       .  A
C1476      H1480   1.082       .  S
C1483      C1488   1.385       .  A
C1483      C1484   1.404       .  A
C1483      N1489   1.344       .  A
C1484      C1485   1.403       .  A
C1484      H1495   1.082       .  S
C1485      C1494   1.379       .  A
C1485      C1486   1.385       .  A
C1486      C1487   1.404       .  A
C1486      N1492   1.344       .  A
C1487      C1488   1.403       .  A
C1487      H1496   1.082       .  S
C1488      C1491   1.379       .  A
N1489      C1490   1.354       .  A
N1489      H1499   1.044       .  S
C1490      C1491   1.394       .  A
C1491      H1497   1.082       .  S
N1492      C1493   1.355       .  A
N1492      H1500   1.045       .  S
C1493      C1494   1.396       .  A
C1494      H1498   1.082       .  S
C1501      C1506   1.385       .  A
C1501      C1502   1.402       .  A
C1501      N1507   1.341       .  A
C1502      C1503   1.401       .  A
C1502      H1513   1.082       .  S
C1503      C1512   1.378       .  A
C1503      C1504   1.385       .  A
C1504      C1505   1.404       .  A
C1504      N1510   1.343       .  A
C1505      C1506   1.403       .  A
C1505      H1514   1.082       .  S
C1506      C1509   1.379       .  A
N1507      C1508   1.354       .  A
N1507      H1517   1.045       .  S
C1508      C1509   1.394       .  A
C1509      H1515   1.082       .  S
N1510      C1511   1.355       .  A
N1510      H1518   1.045       .  S
C1511      C1512   1.392       .  A
C1512      H1516   1.082       .  S
C1519      C1524   1.385       .  A
C1519      C1520   1.405       .  A
C1519      N1525   1.345       .  A
C1520      C1521   1.404       .  A
C1520      H1531   1.082       .  S
C1521      C1530   1.379       .  A
C1521      C1522   1.385       .  A
C1522      C1523   1.402       .  A
C1522      N1528   1.343       .  A
C1523      C1524   1.401       .  A
C1523      H1532   1.082       .  S
C1524      C1527   1.375       .  A
N1525      C1526   1.357       .  A
N1525      H1535   1.044       .  S
C1526      C1527   1.394       .  A
C1527      H1533   1.082       .  S
N1528      C1529   1.355       .  A
N1528      H1536   1.044       .  S
C1529      C1530   1.396       .  A
C1530      H1534   1.082       .  S
C1537      C1542   1.385       .  A
C1537      C1538   1.403       .  A
C1537      N1543   1.344       .  A
C1538      C1539   1.403       .  A
C1538      H1549   1.082       .  S
C1539      C1548   1.378       .  A
C1539      C1540   1.385       .  A
C1540      C1541   1.403       .  A
C1540      N1546   1.343       .  A
C1541      C1542   1.403       .  A
C1541      H1550   1.082       .  S
C1542      C1545   1.377       .  A
N1543      C1544   1.354       .  A
N1543      H1553   1.046       .  S
C1544      C1545   1.394       .  A
C1545      H1551   1.082       .  S
N1546      C1547   1.355       .  A
N1546      H1554   1.045       .  S
C1547      C1548   1.393       .  A
C1548      H1552   1.082       .  S
C1555      C1560   1.385       .  A
C1555      C1556   1.404       .  A
C1555      N1561   1.344       .  A
C1556      C1557   1.403       .  A
C1556      H1567   1.082       .  S
C1557      C1566   1.378       .  A
C1557      C1558   1.385       .  A
C1558      C1559   1.404       .  A
C1558      N1564   1.344       .  A
C1559      C1560   1.403       .  A
C1559      H1568   1.082       .  S
C1560      C1563   1.380       .  A
N1561      C1562   1.355       .  A
N1561      H1571   1.045       .  S
C1562      C1563   1.393       .  A
C1563      H1569   1.082       .  S
N1564      C1565   1.355       .  A
N1564      H1572   1.045       .  S
C1565      C1566   1.395       .  A
C1566      H1570   1.082       .  S
C1573      C1578   1.384       .  A
C1573      C1574   1.405       .  A
C1573      N1579   1.344       .  A
C1574      C1575   1.404       .  A
C1574      H1585   1.082       .  S
C1575      C1584   1.381       .  A
C1575      C1576   1.385       .  A
C1576      C1577   1.401       .  A
C1576      N1582   1.341       .  A
C1577      C1578   1.399       .  A
C1577      H1586   1.082       .  S
C1578      C1581   1.376       .  A
N1579      C1580   1.357       .  A
N1579      H1589   1.044       .  S
C1580      C1581   1.393       .  A
C1581      H1587   1.082       .  S
N1582      C1583   1.354       .  A
N1582      H1590   1.044       .  S
C1583      C1584   1.396       .  A
C1584      H1588   1.082       .  S
C1591      C1596   1.385       .  A
C1591      C1592   1.405       .  A
C1591      N1597   1.345       .  A
C1592      C1593   1.404       .  A
C1592      H1603   1.082       .  S
C1593      C1602   1.381       .  A
C1593      C1594   1.385       .  A
C1594      C1595   1.402       .  A
C1594      N1600   1.342       .  A
C1595      C1596   1.401       .  A
C1595      H1604   1.082       .  S
C1596      C1599   1.377       .  A
N1597      C1598   1.356       .  A
N1597      H1607   1.045       .  S
C1598      C1599   1.394       .  A
C1599      H1605   1.082       .  S
N1600      C1601   1.353       .  A
N1600      H1608   1.044       .  S
C1601      C1602   1.394       .  A
C1602      H1606   1.082       .  S
C1609      C1614   1.385       .  A
C1609      C1610   1.402       .  A
C1609      N1615   1.342       .  A
C1610      C1611   1.401       .  A
C1610      H1621   1.082       .  S
C1611      C1620   1.376       .  A
C1611      C1612   1.384       .  A
C1612      C1613   1.405       .  A
C1612      N1618   1.345       .  A
C1613      C1614   1.404       .  A
C1613      H1622   1.082       .  S
C1614      C1617   1.380       .  A
N1615      C1616   1.355       .  A
N1615      H1625   1.045       .  S
C1616      C1617   1.396       .  A
C1617      H1623   1.082       .  S
N1618      C1619   1.357       .  A
N1618      H1626   1.045       .  S
C1619      C1620   1.395       .  A
C1620      H1624   1.082       .  S
C1627      C1632   1.385       .  A
C1627      C1628   1.402       .  A
C1627      N1633   1.342       .  A
C1628      C1629   1.401       .  A
C1628      H1639   1.082       .  S
C1629      C1638   1.377       .  A
C1629      C1630   1.384       .  A
C1630      C1631   1.405       .  A
C1630      N1636   1.344       .  A
C1631      C1632   1.404       .  A
C1631      H1640   1.082       .  S
C1632      C1635   1.380       .  A
N1633      C1634   1.355       .  A
N1633      H1643   1.046       .  S
C1634      C1635   1.396       .  A
C1635      H1641   1.082       .  S
N1636      C1637   1.356       .  A
N1636      H1644   1.046       .  S
C1637      C1638   1.394       .  A
C1638      H1642   1.082       .  S
C1645      C1650   1.385       .  A
C1645      C1646   1.403       .  A
C1645      N1651   1.343       .  A
C1646      C1647   1.402       .  A
C1646      H1657   1.082       .  S
C1647      C1656   1.377       .  A
C1647      C1648   1.385       .  A
C1648      C1649   1.403       .  A
C1648      N1654   1.343       .  A
C1649      C1650   1.402       .  A
C1649      H1658   1.082       .  S
C1650      C1653   1.377       .  A
N1651      C1652   1.354       .  A
N1651      H1661   1.045       .  S
C1652      C1653   1.392       .  A
C1653      H1659   1.082       .  S
N1654      C1655   1.355       .  A
N1654      H1662   1.044       .  S
C1655      C1656   1.394       .  A
C1656      H1660   1.082       .  S
C1663      C1668   1.385       .  A
C1663      C1664   1.403       .  A
C1663      N1669   1.343       .  A
C1664      C1665   1.402       .  A
C1664      H1675   1.082       .  S
C1665      C1674   1.379       .  A
C1665      C1666   1.385       .  A
C1666      C1667   1.405       .  A
C1666      N1672   1.345       .  A
C1667      C1668   1.405       .  A
C1667      H1676   1.082       .  S
C1668      C1671   1.381       .  A
N1669      C1670   1.354       .  A
N1669      H1679   1.045       .  S
C1670      C1671   1.396       .  A
C1671      H1677   1.082       .  S
N1672      C1673   1.356       .  A
N1672      H1680   1.044       .  S
C1673      C1674   1.394       .  A
C1674      H1678   1.082       .  S
C1681      C1686   1.385       .  A
C1681      C1682   1.403       .  A
C1681      N1687   1.343       .  A
C1682      C1683   1.403       .  A
C1682      H1693   1.082       .  S
C1683      C1692   1.379       .  A
C1683      C1684   1.385       .  A
C1684      C1685   1.404       .  A
C1684      N1690   1.344       .  A
C1685      C1686   1.404       .  A
C1685      H1694   1.082       .  S
C1686      C1689   1.380       .  A
N1687      C1688   1.355       .  A
N1687      H1697   1.045       .  S
C1688      C1689   1.396       .  A
C1689      H1695   1.082       .  S
N1690      C1691   1.355       .  A
N1690      H1698   1.044       .  S
C1691      C1692   1.393       .  A
C1692      H1696   1.082       .  S
C1699      C1704   1.385       .  A
C1699      C1700   1.405       .  A
C1699      N1705   1.344       .  A
C1700      C1701   1.403       .  A
C1700      H1711   1.082       .  S
C1701      C1710   1.380       .  A
C1701      C1702   1.385       .  A
C1702      C1703   1.401       .  A
C1702      N1708   1.341       .  A
C1703      C1704   1.400       .  A
C1703      H1712   1.082       .  S
C1704      C1707   1.376       .  A
N1705      C1706   1.356       .  A
N1705      H1715   1.045       .  S
C1706      C1707   1.394       .  A
C1707      H1713   1.082       .  S
N1708      C1709   1.355       .  A
N1708      H1716   1.045       .  S
C1709      C1710   1.396       .  A
C1710      H1714   1.082       .  S
C1717      C1722   1.385       .  A
C1717      C1718   1.403       .  A
C1717      N1723   1.344       .  A
C1718      C1719   1.403       .  A
C1718      H1729   1.082       .  S
C1719      C1728   1.377       .  A
C1719      C1720   1.385       .  A
C1720      C1721   1.403       .  A
C1720      N1726   1.344       .  A
C1721      C1722   1.403       .  A
C1721      H1730   1.082       .  S
C1722      C1725   1.378       .  A
N1723      C1724   1.354       .  A
N1723      H1733   1.044       .  S
C1724      C1725   1.393       .  A
C1725      H1731   1.082       .  S
N1726      C1727   1.355       .  A
N1726      H1734   1.045       .  S
C1727      C1728   1.394       .  A
C1728      H1732   1.082       .  S
C1735      C1740   1.385       .  A
C1735      C1736   1.404       .  A
C1735      N1741   1.345       .  A
C1736      C1737   1.403       .  A
C1736      H1747   1.082       .  S
C1737      C1746   1.378       .  A
C1737      C1738   1.385       .  A
C1738      C1739   1.402       .  A
C1738      N1744   1.343       .  A
C1739      C1740   1.401       .  A
C1739      H1748   1.082       .  S
C1740      C1743   1.376       .  A
N1741      C1742   1.355       .  A
N1741      H1751   1.044       .  S
C1742      C1743   1.392       .  A
C1743      H1749   1.082       .  S
N1744      C1745   1.355       .  A
N1744      H1752   1.044       .  S
C1745      C1746   1.394       .  A
C1746      H1750   1.082       .  S
C1753      C1758   1.385       .  A
C1753      C1754   1.403       .  A
C1753      N1759   1.342       .  A
C1754      C1755   1.402       .  A
C1754      H1765   1.082       .  S
C1755      C1764   1.378       .  A
C1755      C1756   1.384       .  A
C1756      C1757   1.404       .  A
C1756      N1762   1.343       .  A
C1757      C1758   1.402       .  A
C1757      H1766   1.082       .  S
C1758      C1761   1.379       .  A
N1759      C1760   1.355       .  A
N1759      H1769   1.045       .  S
C1760      C1761   1.395       .  A
C1761      H1767   1.082       .  S
N1762      C1763   1.356       .  A
N1762      H1770   1.045       .  S
C1763      C1764   1.395       .  A
C1764      H1768   1.082       .  S
C1771      C1776   1.385       .  A
C1771      C1772   1.405       .  A
C1771      N1777   1.344       .  A
C1772      C1773   1.404       .  A
C1772      H1783   1.082       .  S
C1773      C1782   1.380       .  A
C1773      C1774   1.385       .  A
C1774      C1775   1.402       .  A
C1774      N1780   1.342       .  A
C1775      C1776   1.401       .  A
C1775      H1784   1.082       .  S
C1776      C1779   1.377       .  A
N1777      C1778   1.355       .  A
N1777      H1787   1.044       .  S
C1778      C1779   1.392       .  A
C1779      H1785   1.082       .  S
N1780      C1781   1.354       .  A
N1780      H1788   1.046       .  S
C1781      C1782   1.395       .  A
C1782      H1786   1.082       .  S
C1789      C1794   1.385       .  A
C1789      C1790   1.400       .  A
C1789      N1795   1.339       .  A
C1790      C1791   1.399       .  A
C1790      H1801   1.082       .  S
C1791      C1800   1.376       .  A
C1791      C1792   1.385       .  A
C1792      C1793   1.404       .  A
C1792      N1798   1.342       .  A
C1793      C1794   1.402       .  A
C1793      H1802   1.082       .  S
C1794      C1797   1.379       .  A
N1795      C1796   1.354       .  A
N1795      H1805   1.043       .  S
C1796      C1797   1.395       .  A
C1797      H1803   1.082       .  S
N1798      C1799   1.356       .  A
N1798      H1806   1.043       .  S
C1799      C1800   1.393       .  A
C1800      H1804   1.082       .  S
C1807      C1812   1.384       .  A
C1807      C1808   1.404       .  A
C1807      N1813   1.344       .  A
C1808      C1809   1.403       .  A
C1808      H1819   1.082       .  S
C1809      C1818   1.379       .  A
C1809      C1810   1.385       .  A
C1810      C1811   1.402       .  A
C1810      N1816   1.342       .  A
C1811      C1812   1.401       .  A
C1811      H1820   1.082       .  S
C1812      C1815   1.377       .  A
N1813      C1814   1.356       .  A
N1813      H1823   1.043       .  S
C1814      C1815   1.395       .  A
C1815      H1821   1.082       .  S
N1816      C1817   1.355       .  A
N1816      H1824   1.043       .  S
C1817      C1818   1.396       .  A
C1818      H1822   1.082       .  S
C1825      C1830   1.386       .  A
C1825      C1826   1.400       .  A
C1825      N1831   1.342       .  A
C1826      C1827   1.400       .  A
C1826      H1837   1.082       .  S
C1827      C1836   1.374       .  A
C1827      C1828   1.385       .  A
C1828      C1829   1.401       .  A
C1828      N1834   1.342       .  A
C1829      C1830   1.400       .  A
C1829      H1838   1.082       .  S
C1830      C1833   1.374       .  A
N1831      C1832   1.352       .  A
N1831      H1841   1.044       .  S
C1832      C1833   1.391       .  A
C1833      H1839   1.083       .  S
N1834      C1835   1.354       .  A
N1834      H1842   1.045       .  S
C1835      C1836   1.392       .  A
C1836      H1840   1.082       .  S
C1843      C1848   1.385       .  A
C1843      C1844   1.403       .  A
C1843      N1849   1.343       .  A
C1844      C1845   1.402       .  A
C1844      H1855   1.082       .  S
C1845      C1854   1.377       .  A
C1845      C1846   1.385       .  A
C1846      C1847   1.402       .  A
C1846      N1852   1.342       .  A
C1847      C1848   1.401       .  A
C1847      H1856   1.082       .  S
C1848      C1851   1.376       .  A
N1849      C1850   1.354       .  A
N1849      H1859   1.044       .  S
C1850      C1851   1.392       .  A
C1851      H1857   1.082       .  S
N1852      C1853   1.354       .  A
N1852      H1860   1.044       .  S
C1853      C1854   1.393       .  A
C1854      H1858   1.082       .  S
C1861      C1866   1.385       .  A
C1861      C1862   1.404       .  A
C1861      N1867   1.344       .  A
C1862      C1863   1.403       .  A
C1862      H1873   1.082       .  S
C1863      C1872   1.378       .  A
C1863      C1864   1.385       .  A
C1864      C1865   1.405       .  A
C1864      N1870   1.345       .  A
C1865      C1866   1.405       .  A
C1865      H1874   1.082       .  S
C1866      C1869   1.380       .  A
N1867      C1868   1.355       .  A
N1867      H1877   1.044       .  S
C1868      C1869   1.395       .  A
C1869      H1875   1.082       .  S
N1870      C1871   1.355       .  A
N1870      H1878   1.045       .  S
C1871      C1872   1.394       .  A
C1872      H1876   1.082       .  S
C1879      C1884   1.385       .  A
C1879      C1880   1.404       .  A
C1879      N1885   1.344       .  A
C1880      C1881   1.403       .  A
C1880      H1891   1.082       .  S
C1881      C1890   1.379       .  A
C1881      C1882   1.385       .  A
C1882      C1883   1.402       .  A
C1882      N1888   1.342       .  A
C1883      C1884   1.401       .  A
C1883      H1892   1.082       .  S
C1884      C1887   1.377       .  A
N1885      C1886   1.356       .  A
N1885      H1895   1.047       .  S
C1886      C1887   1.395       .  A
C1887      H1893   1.082       .  S
N1888      C1889   1.354       .  A
N1888      H1896   1.047       .  S
C1889      C1890   1.395       .  A
C1890      H1894   1.082       .  S
C1897      C1902   1.385       .  A
C1897      C1898   1.404       .  A
C1897      N1903   1.344       .  A
C1898      C1899   1.404       .  A
C1898      H1909   1.082       .  S
C1899      C1908   1.379       .  A
C1899      C1900   1.385       .  A
C1900      C1901   1.404       .  A
C1900      N1906   1.344       .  A
C1901      C1902   1.403       .  A
C1901      H1910   1.082       .  S
C1902      C1905   1.378       .  A
N1903      C1904   1.355       .  A
N1903      H1913   1.045       .  S
C1904      C1905   1.393       .  A
C1905      H1911   1.082       .  S
N1906      C1907   1.355       .  A
N1906      H1914   1.045       .  S
C1907      C1908   1.395       .  A
C1908      H1912   1.082       .  S
C1915      C1920   1.385       .  A
C1915      C1916   1.404       .  A
C1915      N1921   1.344       .  A
C1916      C1917   1.402       .  A
C1916      H1927   1.082       .  S
C1917      C1926   1.378       .  A
C1917      C1918   1.385       .  A
C1918      C1919   1.403       .  A
C1918      N1924   1.343       .  A
C1919      C1920   1.402       .  A
C1919      H1928   1.082       .  S
C1920      C1923   1.378       .  A
N1921      C1922   1.355       .  A
N1921      H1931   1.045       .  S
C1922      C1923   1.393       .  A
C1923      H1929   1.082       .  S
N1924      C1925   1.354       .  A
N1924      H1932   1.045       .  S
C1925      C1926   1.394       .  A
C1926      H1930   1.082       .  S
C1933      C1938   1.385       .  A
C1933      C1934   1.404       .  A
C1933      N1939   1.343       .  A
C1934      C1935   1.403       .  A
C1934      H1945   1.082       .  S
C1935      C1944   1.380       .  A
C1935      C1936   1.385       .  A
C1936      C1937   1.402       .  A
C1936      N1942   1.341       .  A
C1937      C1938   1.400       .  A
C1937      H1946   1.082       .  S
C1938      C1941   1.376       .  A
N1939      C1940   1.356       .  A
N1939      H1949   1.046       .  S
C1940      C1941   1.394       .  A
C1941      H1947   1.082       .  S
N1942      C1943   1.355       .  A
N1942      H1950   1.045       .  S
C1943      C1944   1.396       .  A
C1944      H1948   1.082       .  S
C1951      C1956   1.385       .  A
C1951      C1952   1.402       .  A
C1951      N1957   1.342       .  A
C1952      C1953   1.401       .  A
C1952      H1963   1.082       .  S
C1953      C1962   1.377       .  A
C1953      C1954   1.385       .  A
C1954      C1955   1.404       .  A
C1954      N1960   1.344       .  A
C1955      C1956   1.403       .  A
C1955      H1964   1.082       .  S
C1956      C1959   1.380       .  A
N1957      C1958   1.354       .  A
N1957      H1967   1.045       .  S
C1958      C1959   1.395       .  A
C1959      H1965   1.082       .  S
N1960      C1961   1.355       .  A
N1960      H1968   1.044       .  S
C1961      C1962   1.393       .  A
C1962      H1966   1.082       .  S
C1969      C1974   1.385       .  A
C1969      C1970   1.403       .  A
C1969      N1975   1.342       .  A
C1970      C1971   1.402       .  A
C1970      H1981   1.082       .  S
C1971      C1980   1.379       .  A
C1971      C1972   1.385       .  A
C1972      C1973   1.402       .  A
C1972      N1978   1.341       .  A
C1973      C1974   1.401       .  A
C1973      H1982   1.082       .  S
C1974      C1977   1.377       .  A
N1975      C1976   1.355       .  A
N1975      H1985   1.044       .  S
C1976      C1977   1.394       .  A
C1977      H1983   1.082       .  S
N1978      C1979   1.355       .  A
N1978      H1986   1.045       .  S
C1979      C1980   1.395       .  A
C1980      H1984   1.082       .  S
C1987      C1992   1.384       .  A
C1987      C1988   1.404       .  A
C1987      N1993   1.343       .  A
C1988      C1989   1.403       .  A
C1988      H1999   1.082       .  S
C1989      C1998   1.380       .  A
C1989      C1990   1.384       .  A
C1990      C1991   1.404       .  A
C1990      N1996   1.342       .  A
C1991      C1992   1.403       .  A
C1991      H2000   1.082       .  S
C1992      C1995   1.380       .  A
N1993      C1994   1.356       .  A
N1993      H2003   1.045       .  S
C1994      C1995   1.395       .  A
C1995      H2001   1.082       .  S
N1996      C1997   1.356       .  A
N1996      H2004   1.045       .  S
C1997      C1998   1.395       .  A
C1998      H2002   1.082       .  S
C2005      C2010   1.385       .  A
C2005      C2006   1.403       .  A
C2005      N2011   1.343       .  A
C2006      C2007   1.402       .  A
C2006      H2017   1.082       .  S
C2007      C2016   1.377       .  A
C2007      C2008   1.385       .  A
C2008      C2009   1.407       .  A
C2008      N2014   1.347       .  A
C2009      C2010   1.406       .  A
C2009      H2018   1.082       .  S
C2010      C2013   1.382       .  A
N2011      C2012   1.354       .  A
N2011      H2021   1.045       .  S
C2012      C2013   1.396       .  A
C2013      H2019   1.082       .  S
N2014      C2015   1.357       .  A
N2014      H2022   1.045       .  S
C2015      C2016   1.394       .  A
C2016      H2020   1.082       .  S
C2023      C2028   1.385       .  A
C2023      C2024   1.403       .  A
C2023      N2029   1.343       .  A
C2024      C2025   1.402       .  A
C2024      H2035   1.082       .  S
C2025      C2034   1.378       .  A
C2025      C2026   1.385       .  A
C2026      C2027   1.403       .  A
C2026      N2032   1.343       .  A
C2027      C2028   1.402       .  A
C2027      H2036   1.082       .  S
C2028      C2031   1.378       .  A
N2029      C2030   1.356       .  A
N2029      H2039   1.044       .  S
C2030      C2031   1.394       .  A
C2031      H2037   1.082       .  S
N2032      C2033   1.354       .  A
N2032      H2040   1.045       .  S
C2033      C2034   1.393       .  A
C2034      H2038   1.082       .  S
C2041      C2046   1.385       .  A
C2041      C2042   1.405       .  A
C2041      N2047   1.344       .  A
C2042      C2043   1.404       .  A
C2042      H2053   1.082       .  S
C2043      C2052   1.379       .  A
C2043      C2044   1.386       .  A
C2044      C2045   1.400       .  A
C2044      N2050   1.340       .  A
C2045      C2046   1.399       .  A
C2045      H2054   1.082       .  S
C2046      C2049   1.375       .  A
N2047      C2048   1.355       .  A
N2047      H2057   1.044       .  S
C2048      C2049   1.393       .  A
C2049      H2055   1.082       .  S
N2050      C2051   1.352       .  A
N2050      H2058   1.045       .  S
C2051      C2052   1.394       .  A
C2052      H2056   1.082       .  S
C2059      C2064   1.385       .  A
C2059      C2060   1.404       .  A
C2059      N2065   1.343       .  A
C2060      C2061   1.402       .  A
C2060      H2071   1.082       .  S
C2061      C2070   1.379       .  A
C2061      C2062   1.385       .  A
C2062      C2063   1.401       .  A
C2062      N2068   1.340       .  A
C2063      C2064   1.400       .  A
C2063      H2072   1.082       .  S
C2064      C2067   1.377       .  A
N2065      C2066   1.356       .  A
N2065      H2075   1.045       .  S
C2066      C2067   1.395       .  A
C2067      H2073   1.082       .  S
N2068      C2069   1.354       .  A
N2068      H2076   1.045       .  S
C2069      C2070   1.395       .  A
C2070      H2074   1.082       .  S
C2077      C2082   1.385       .  A
C2077      C2078   1.404       .  A
C2077      N2083   1.345       .  A
C2078      C2079   1.403       .  A
C2078      H2089   1.082       .  S
C2079      C2088   1.378       .  A
C2079      C2080   1.385       .  A
C2080      C2081   1.403       .  A
C2080      N2086   1.344       .  A
C2081      C2082   1.403       .  A
C2081      H2090   1.082       .  S
C2082      C2085   1.378       .  A
N2083      C2084   1.355       .  A
N2083      H2093   1.044       .  S
C2084      C2085   1.395       .  A
C2085      H2091   1.082       .  S
N2086      C2087   1.354       .  A
N2086      H2094   1.045       .  S
C2087      C2088   1.393       .  A
C2088      H2092   1.082       .  S
C2095      C2100   1.385       .  A
C2095      C2096   1.401       .  A
C2095      N2101   1.341       .  A
C2096      C2097   1.399       .  A
C2096      H2107   1.082       .  S
C2097      C2106   1.375       .  A
C2097      C2098   1.385       .  A
C2098      C2099   1.403       .  A
C2098      N2104   1.343       .  A
C2099      C2100   1.402       .  A
C2099      H2108   1.082       .  S
C2100      C2103   1.378       .  A
N2101      C2102   1.353       .  A
N2101      H2111   1.045       .  S
C2102      C2103   1.394       .  A
C2103      H2109   1.082       .  S
N2104      C2105   1.354       .  A
N2104      H2112   1.044       .  S
C2105      C2106   1.391       .  A
C2106      H2110   1.082       .  S
C2113      C2118   1.384       .  A
C2113      C2114   1.402       .  A
C2113      N2119   1.343       .  A
C2114      C2115   1.401       .  A
C2114      H2125   1.082       .  S
C2115      C2124   1.377       .  A
C2115      C2116   1.384       .  A
C2116      C2117   1.406       .  A
C2116      N2122   1.345       .  A
C2117      C2118   1.405       .  A
C2117      H2126   1.082       .  S
C2118      C2121   1.381       .  A
N2119      C2120   1.355       .  A
N2119      H2129   1.044       .  S
C2120      C2121   1.397       .  A
C2121      H2127   1.082       .  S
N2122      C2123   1.357       .  A
N2122      H2130   1.044       .  S
C2123      C2124   1.395       .  A
C2124      H2128   1.082       .  S
C2131      C2136   1.385       .  A
C2131      C2132   1.405       .  A
C2131      N2137   1.345       .  A
C2132      C2133   1.404       .  A
C2132      H2143   1.082       .  S
C2133      C2142   1.380       .  A
C2133      C2134   1.385       .  A
C2134      C2135   1.404       .  A
C2134      N2140   1.344       .  A
C2135      C2136   1.404       .  A
C2135      H2144   1.082       .  S
C2136      C2139   1.380       .  A
N2137      C2138   1.356       .  A
N2137      H2147   1.045       .  S
C2138      C2139   1.395       .  A
C2139      H2145   1.082       .  S
N2140      C2141   1.354       .  A
N2140      H2148   1.045       .  S
C2141      C2142   1.395       .  A
C2142      H2146   1.082       .  S
C2149      C2154   1.384       .  A
C2149      C2150   1.405       .  A
C2149      N2155   1.345       .  A
C2150      C2151   1.404       .  A
C2150      H2161   1.082       .  S
C2151      C2160   1.381       .  A
C2151      C2152   1.384       .  A
C2152      C2153   1.403       .  A
C2152      N2158   1.342       .  A
C2153      C2154   1.401       .  A
C2153      H2162   1.082       .  S
C2154      C2157   1.377       .  A
N2155      C2156   1.356       .  A
N2155      H2165   1.044       .  S
C2156      C2157   1.395       .  A
C2157      H2163   1.082       .  S
N2158      C2159   1.355       .  A
N2158      H2166   1.044       .  S
C2159      C2160   1.397       .  A
C2160      H2164   1.082       .  S
C2167      C2172   1.384       .  A
C2167      C2168   1.404       .  A
C2167      N2173   1.344       .  A
C2168      C2169   1.403       .  A
C2168      H2179   1.082       .  S
C2169      C2178   1.379       .  A
C2169      C2170   1.385       .  A
C2170      C2171   1.402       .  A
C2170      N2176   1.342       .  A
C2171      C2172   1.401       .  A
C2171      H2180   1.082       .  S
C2172      C2175   1.376       .  A
N2173      C2174   1.356       .  A
N2173      H2183   1.043       .  S
C2174      C2175   1.394       .  A
C2175      H2181   1.082       .  S
N2176      C2177   1.355       .  A
N2176      H2184   1.043       .  S
C2177      C2178   1.396       .  A
C2178      H2182   1.082       .  S
C2185      C2190   1.385       .  A
C2185      C2186   1.403       .  A
C2185      N2191   1.343       .  A
C2186      C2187   1.402       .  A
C2186      H2197   1.082       .  S
C2187      C2196   1.378       .  A
C2187      C2188   1.385       .  A
C2188      C2189   1.403       .  A
C2188      N2194   1.343       .  A
C2189      C2190   1.403       .  A
C2189      H2198   1.083       .  S
C2190      C2193   1.377       .  A
N2191      C2192   1.354       .  A
N2191      H2201   1.045       .  S
C2192      C2193   1.395       .  A
C2193      H2199   1.083       .  S
N2194      C2195   1.355       .  A
N2194      H2202   1.045       .  S
C2195      C2196   1.393       .  A
C2196      H2200   1.082       .  S
C2203      C2208   1.385       .  A
C2203      C2204   1.403       .  A
C2203      N2209   1.343       .  A
C2204      C2205   1.402       .  A
C2204      H2215   1.082       .  S
C2205      C2214   1.377       .  A
C2205      C2206   1.385       .  A
C2206      C2207   1.403       .  A
C2206      N2212   1.343       .  A
C2207      C2208   1.403       .  A
C2207      H2216   1.082       .  S
C2208      C2211   1.379       .  A
N2209      C2210   1.355       .  A
N2209      H2219   1.044       .  S
C2210      C2211   1.394       .  A
C2211      H2217   1.082       .  S
N2212      C2213   1.354       .  A
N2212      H2220   1.044       .  S
C2213      C2214   1.394       .  A
C2214      H2218   1.083       .  S
C2221      C2226   1.385       .  A
C2221      C2222   1.404       .  A
C2221      N2227   1.344       .  A
C2222      C2223   1.402       .  A
C2222      H2233   1.082       .  S
C2223      C2232   1.380       .  A
C2223      C2224   1.385       .  A
C2224      C2225   1.403       .  A
C2224      N2230   1.342       .  A
C2225      C2226   1.402       .  A
C2225      H2234   1.082       .  S
C2226      C2229   1.379       .  A
N2227      C2228   1.354       .  A
N2227      H2237   1.044       .  S
C2228      C2229   1.394       .  A
C2229      H2235   1.082       .  S
N2230      C2231   1.355       .  A
N2230      H2238   1.044       .  S
C2231      C2232   1.394       .  A
C2232      H2236   1.082       .  S
C2239      C2244   1.385       .  A
C2239      C2240   1.401       .  A
C2239      N2245   1.342       .  A
C2240      C2241   1.401       .  A
C2240      H2251   1.082       .  S
C2241      C2250   1.376       .  A
C2241      C2242   1.385       .  A
C2242      C2243   1.406       .  A
C2242      N2248   1.346       .  A
C2243      C2244   1.405       .  A
C2243      H2252   1.082       .  S
C2244      C2247   1.381       .  A
N2245      C2246   1.354       .  A
N2245      H2255   1.045       .  S
C2246      C2247   1.396       .  A
C2247      H2253   1.082       .  S
N2248      C2249   1.356       .  A
N2248      H2256   1.045       .  S
C2249      C2250   1.393       .  A
C2250      H2254   1.082       .  S
C2257      C2262   1.384       .  A
C2257      C2258   1.409       .  A
C2257      N2263   1.349       .  A
C2258      C2259   1.408   1_545  A
C2258      H2269   1.082       .  S
C2259      C2268   1.384       .  A
C2259      C2260   1.384       .  A
C2260      C2261   1.401   1_565  A
C2260      N2266   1.342       .  A
C2261      C2262   1.401       .  A
C2261      H2270   1.082       .  S
C2262      C2265   1.375       .  A
N2263      C2264   1.359       .  A
N2263      H2273   1.042       .  S
C2264      C2265   1.395       .  A
C2265      H2271   1.082       .  S
N2266      C2267   1.354       .  A
N2266      H2274   1.044       .  S
C2267      C2268   1.399       .  A
C2268      H2272   1.082       .  S
C2275      C2280   1.385       .  A
C2275      C2276   1.403       .  A
C2275      N2281   1.345       .  A
C2276      C2277   1.403       .  A
C2276      H2287   1.082       .  S
C2277      C2286   1.376       .  A
C2277      C2278   1.385       .  A
C2278      C2279   1.402       .  A
C2278      N2284   1.344       .  A
C2279      C2280   1.402       .  A
C2279      H2288   1.082       .  S
C2280      C2283   1.376       .  A
N2281      C2282   1.355       .  A
N2281      H2291   1.044       .  S
C2282      C2283   1.393       .  A
C2283      H2289   1.082       .  S
N2284      C2285   1.354       .  A
N2284      H2292   1.044       .  S
C2285      C2286   1.393       .  A
C2286      H2290   1.082       .  S
C2293      C2298   1.385       .  A
C2293      C2294   1.403       .  A
C2293      N2299   1.342       .  A
C2294      C2295   1.402       .  A
C2294      H2305   1.082       .  S
C2295      C2304   1.378       .  A
C2295      C2296   1.385       .  A
C2296      C2297   1.404       .  A
C2296      N2302   1.343       .  A
C2297      C2298   1.403       .  A
C2297      H2306   1.082       .  S
C2298      C2301   1.380       .  A
N2299      C2300   1.354       .  A
N2299      H2309   1.045       .  S
C2300      C2301   1.394       .  A
C2301      H2307   1.082       .  S
N2302      C2303   1.354       .  A
N2302      H2310   1.045       .  S
C2303      C2304   1.394       .  A
C2304      H2308   1.082       .  S
C2311      C2316   1.385       .  A
C2311      C2312   1.402       .  A
C2311      N2317   1.342       .  A
C2312      C2313   1.401   1_655  A
C2312      H2323   1.082       .  S
C2313      C2322   1.376       .  A
C2313      C2314   1.385       .  A
C2314      C2315   1.404       .  A
C2314      N2320   1.344       .  A
C2315      C2316   1.403   1_455  A
C2315      H2324   1.082       .  S
C2316      C2319   1.379       .  A
N2317      C2318   1.355       .  A
N2317      H2327   1.046       .  S
C2318      C2319   1.396       .  A
C2319      H2325   1.082       .  S
N2320      C2321   1.356       .  A
N2320      H2328   1.046       .  S
C2321      C2322   1.394       .  A
C2322      H2326   1.082       .  S
C2329      C2334   1.385       .  A
C2329      C2330   1.404       .  A
C2329      N2335   1.344       .  A
C2330      C2331   1.404       .  A
C2330      H2341   1.082       .  S
C2331      C2340   1.379       .  A
C2331      C2332   1.385       .  A
C2332      C2333   1.402       .  A
C2332      N2338   1.343       .  A
C2333      C2334   1.402       .  A
C2333      H2342   1.082       .  S
C2334      C2337   1.377       .  A
N2335      C2336   1.356       .  A
N2335      H2345   1.044       .  S
C2336      C2337   1.393       .  A
C2337      H2343   1.082       .  S
N2338      C2339   1.354       .  A
N2338      H2346   1.044       .  S
C2339      C2340   1.395       .  A
C2340      H2344   1.082       .  S
C2347      C2352   1.385       .  A
C2347      C2348   1.404       .  A
C2347      N2353   1.345       .  A
C2348      C2349   1.404       .  A
C2348      H2359   1.082       .  S
C2349      C2358   1.379       .  A
C2349      C2350   1.385       .  A
C2350      C2351   1.401       .  A
C2350      N2356   1.342       .  A
C2351      C2352   1.400       .  A
C2351      H2360   1.082       .  S
C2352      C2355   1.375       .  A
N2353      C2354   1.355       .  A
N2353      H2363   1.044       .  S
C2354      C2355   1.392       .  A
C2355      H2361   1.082       .  S
N2356      C2357   1.353       .  A
N2356      H2364   1.045       .  S
C2357      C2358   1.394       .  A
C2358      H2362   1.082       .  S
C2365      C2370   1.385       .  A
C2365      C2366   1.403       .  A
C2365      N2371   1.343       .  A
C2366      C2367   1.402   1_655  A
C2366      H2377   1.082       .  S
C2367      C2376   1.378       .  A
C2367      C2368   1.385       .  A
C2368      C2369   1.403   1_455  A
C2368      N2374   1.343       .  A
C2369      C2370   1.402       .  A
C2369      H2378   1.082   1_655  S
C2370      C2373   1.377       .  A
N2371      C2372   1.356       .  A
N2371      H2381   1.044       .  S
C2372      C2373   1.394       .  A
C2373      H2379   1.082       .  S
N2374      C2375   1.356       .  A
N2374      H2382   1.045       .  S
C2375      C2376   1.395       .  A
C2376      H2380   1.082       .  S
C2383      C2388   1.384       .  A
C2383      C2384   1.405       .  A
C2383      N2389   1.344       .  A
C2384      C2385   1.404   1_545  A
C2384      H2395   1.082       .  S
C2385      C2394   1.380       .  A
C2385      C2386   1.384       .  A
C2386      C2387   1.403   1_565  A
C2386      N2392   1.343       .  A
C2387      C2388   1.402       .  A
C2387      H2396   1.082       .  S
C2388      C2391   1.378       .  A
N2389      C2390   1.356       .  A
N2389      H2399   1.045       .  S
C2390      C2391   1.395       .  A
C2391      H2397   1.082       .  S
N2392      C2393   1.355       .  A
N2392      H2400   1.045       .  S
C2393      C2394   1.397       .  A
C2394      H2398   1.082       .  S
