geometry optimzed in LAMMPS
_audit_creation_date              2020-12-01 
_audit_creation_method            'lammps2cif' 
_symmetry_space_group_name_H-M    'P1' 
_symmetry_Int_Tables_number       1 
_symmetry_cell_setting            triclinic 
loop_ 
_symmetry_equiv_pos_as_xyz 
  x,y,z 
_cell_length_a                    41.30341368 
_cell_length_b                    42.60642880487637 
_cell_length_c                    71.41371560406786 
_cell_angle_alpha                 89.73535739743836 
_cell_angle_beta                  89.75970035758516 
_cell_angle_gamma                 119.14565469213842 
loop_ 
_atom_site_label 
_atom_site_type_symbol 
_atom_site_fract_x 
_atom_site_fract_y 
_atom_site_fract_z 
_atom_site_charge 
C1          C  0.32521735  0.15824693  0.56838718     0.46500
H2          H  0.32549615  0.15655348  0.58385161    -0.02500
C3          C  0.32570438  0.16294678  0.53210547     0.46500
H4          H  0.32486262  0.16435841  0.51675065    -0.02500
C5          C  0.36457466  0.17695204  0.56013519    -0.16200
C6          C  0.30460906  0.12115299  0.55874591    -0.16000
C7          C  0.30758582  0.18072955  0.56137867    -0.16400
C8          C  0.36594800  0.17799330  0.54069601    -0.16300
C9          C  0.30348814  0.12344463  0.53947811    -0.15900
C10         C  0.30723940  0.18340229  0.54201097    -0.16200
C11         C  0.15837810  0.33810730  0.49355333     0.46500
H12         H  0.15124462  0.33550931  0.50860170    -0.02500
C13         C  0.17366258  0.34371982  0.45797776     0.46500
H14         H  0.18055104  0.34656646  0.44295947    -0.02500
C15         C  0.18338450  0.32148003  0.48809567    -0.16200
C16         C  0.12347410  0.31773126  0.48096858    -0.16000
C17         C  0.17848230  0.37802540  0.48616972    -0.16400
C18         C  0.19206386  0.32559987  0.46925048    -0.16300
C19         C  0.13171447  0.32150754  0.46200607    -0.15900
C20         C  0.18607619  0.38017586  0.46721863    -0.16200
Zn21       Zn  0.21804715  0.36315136  0.67347330     1.49700
Zn22       Zn  0.15883480  0.32926085  0.70639948     1.49400
Zn23       Zn  0.13761484  0.35540935  0.66919802     1.49100
Zn24       Zn  0.14630790  0.28388061  0.66954571     1.49500
O25         O  0.16527542  0.33272878  0.67943958    -1.83100
O26         O  0.24841609  0.38174731  0.69703616    -0.73700
O27         O  0.12378395  0.34574089  0.71448413    -0.73600
O28         O  0.17006249  0.39846609  0.65297631    -0.73100
O29         O  0.20651202  0.35798072  0.71986005    -0.73800
O30         O  0.22658614  0.40551441  0.65707616    -0.73300
O31         O  0.11177458  0.36865877  0.68925478    -0.65200
O32         O  0.10225150  0.27129902  0.65286214    -0.73300
O33         O  0.13677329  0.27907584  0.71569738    -0.74100
O34         O  0.09662939  0.32059579  0.65327683    -0.73500
O35         O  0.12715819  0.24556678  0.69046600    -0.73900
O36         O  0.18685726  0.28221744  0.65393917    -0.73800
O37         O  0.23702227  0.33551507  0.65831444    -0.73600
C38         C  0.23983351  0.37710485  0.71438755     0.78200
C39         C  0.10727479  0.36065146  0.70661375     0.78600
C40         C  0.20479962  0.41521217  0.64970518     0.77600
C41         C  0.08542216  0.28845622  0.64819943     0.78000
C42         C  0.12487639  0.24857548  0.70813299     0.79100
C43         C  0.22111826  0.30442688  0.65099643     0.78200
C44         C  0.00866057  0.99895294  0.79055627     0.46500
H45         H  0.01166458  0.99727138  0.77573393    -0.02500
C46         C  0.00589198  0.00201784  0.82656184     0.46500
H47         H  0.00406098  0.00342509  0.84186272    -0.02500
C48         C  0.46723466  0.48660369  0.79609070    -0.16200
C49         C  0.01919574  0.47424793  0.79920240    -0.16000
C50         C  0.03173681  0.03718982  0.79745624    -0.16400
C51         C  0.46578185  0.48659332  0.81567771    -0.16300
C52         C  0.01770787  0.47505016  0.81844575    -0.15900
C53         C  0.03228806  0.03945091  0.81670706    -0.16200
C54         C  0.16627910  0.32848773  0.86568274     0.46500
H55         H  0.16677916  0.33090653  0.85035129    -0.02500
C56         C  0.16702400  0.32421687  0.90181110     0.46500
H57         H  0.16533686  0.31996899  0.91688748    -0.02500
C58         C  0.13844289  0.33848585  0.87583722    -0.16200
C59         C  0.15455832  0.28978961  0.87271801    -0.16000
C60         C  0.20584389  0.35284581  0.87436694    -0.16400
C61         C  0.14026162  0.33691502  0.89503354    -0.16300
C62         C  0.15590382  0.28828134  0.89195992    -0.15900
C63         C  0.20520414  0.35232801  0.89398157    -0.16200
C64         C  0.33564051  0.16928071  0.12286497     0.46500
H65         H  0.33510318  0.16989119  0.10729273    -0.02500
C66         C  0.33649500  0.16823550  0.15922625     0.46500
H67         H  0.33659420  0.16745901  0.17450694    -0.02500
C68         C  0.29736758  0.14752795  0.13153191    -0.16200
C69         C  0.35835942  0.15286548  0.13045508    -0.16000
C70         C  0.35194643  0.20643198  0.13141503    -0.16400
C71         C  0.29645603  0.14751639  0.15081397    -0.16300
C72         C  0.35852269  0.15078818  0.14982948    -0.15900
C73         C  0.35393216  0.20726537  0.15073189    -0.16200
C74         C  0.50068381  0.49658010  0.20078255     0.46500
H75         H  0.50065628  0.49737898  0.18523595    -0.02500
C76         C  0.50053486  0.49531847  0.23719699     0.46500
H77         H  0.50139609  0.49553890  0.25264529    -0.02500
C78         C  0.47178012  0.00867787  0.20873695    -0.16200
C79         C  0.48737997  0.45822262  0.20902347    -0.16000
C80         C  0.03824892  0.02311127  0.20828202    -0.16400
C81         C  0.47018481  0.00803534  0.22809981    -0.16300
C82         C  0.48636405  0.45777206  0.22842480    -0.15900
C83         C  0.03806824  0.02115132  0.22764717    -0.16200
Zn84       Zn  0.30081989  0.11674154  0.34042783     1.49700
Zn85       Zn  0.33886037  0.17115173  0.37425651     1.49400
Zn86       Zn  0.37780213  0.19124854  0.33457230     1.49100
Zn87       Zn  0.30330309  0.19448092  0.34254231     1.49500
O88         O  0.32980241  0.16779826  0.34764411    -1.83100
O89         O  0.28952228  0.08391431  0.36407763    -0.73700
O90         O  0.39189404  0.19953795  0.37962951    -0.73600
O91         O  0.38411501  0.15579228  0.31873188    -0.73100
O92         O  0.32092984  0.12368687  0.38606632    -0.73800
O93         O  0.33096585  0.10459724  0.32141057    -0.73300
O94         O  0.42133648  0.21499208  0.35230049    -0.73900
O95         O  0.33146261  0.23484422  0.32407706    -0.73300
O96         O  0.31477113  0.19453344  0.38817839    -0.74100
O97         O  0.38065636  0.22935357  0.31714555    -0.73500
O98         O  0.29161888  0.21400035  0.36610384    -0.73900
O99         O  0.25613589  0.16255848  0.32938342    -0.73800
O100        O  0.25321183  0.10915606  0.32703479    -0.73600
C101        C  0.30058932  0.09148171  0.38104892     0.78200
C102        C  0.42158273  0.21510660  0.37011913     0.78600
C103        C  0.36362783  0.12296356  0.31449559     0.77600
C104        C  0.36097151  0.24447286  0.31459885     0.78000
C105        C  0.29778318  0.21120119  0.38335777     0.79100
C106        C  0.24038476  0.13049372  0.32339998     0.78200
Zn107      Zn  0.50702870  0.49854851  0.98578343     1.49700
Zn108      Zn  0.02436703  0.04635013  0.02164918     1.49400
Zn109      Zn  0.45129699  0.47434662  0.02039162     1.49100
Zn110      Zn  0.03070978  0.47418394  0.02295639     1.49500
O111        O  0.50379088  0.49837692  0.01282473    -1.83100
O112        O  0.03382077  0.04827382  0.97568274    -0.73700
O113        O  0.48962660  0.05598989  0.03504180    -0.73600
O114        O  0.41726683  0.45769099  0.99756932    -0.73100
O115        O  0.04549175  0.08284978  0.00053719    -0.73800
O116        O  0.45763268  0.47395409  0.97401791    -0.73300
O117        O  0.43611241  0.00523209  0.03297793    -0.73900
O118        O  0.49355714  0.43205661  0.03897576    -0.73300
O119        O  0.06547491  0.05533613  0.03915806    -0.74100
O120        O  0.43941235  0.43118287  0.03696481    -0.73500
O121        O  0.06804747  0.00439398  0.03965741    -0.73900
O122        O  0.05338627  0.45864890  0.00221247    -0.73800
O123        O  0.03750427  0.47834406  0.97690872    -0.73600
C124        C  0.04729673  0.07927039  0.98295376     0.78200
C125        C  0.45535817  0.03715207  0.03904468     0.78600
C126        C  0.42458026  0.45911618  0.98009333     0.77600
C127        C  0.45957657  0.41868519  0.04346400     0.78000
C128        C  0.07953449  0.03648973  0.04506999     0.79100
C129        C  0.05335202  0.46247963  0.98452687     0.78200
C130        C  0.12821481  0.05951255  0.25656861    -0.10900
C131        C  0.11997626  0.07723749  0.27057089     0.11700
C132        C  0.08782106  0.08073988  0.26908313    -0.02700
C133        C  0.06282171  0.06265210  0.25447661    -0.05400
C134        C  0.06970186  0.04267561  0.24081108    -0.16200
C135        C  0.10393885  0.04190835  0.24178621     0.02700
C136        C  0.14684498  0.09224304  0.28616760     0.12700
C137        C  0.08059430  0.10424812  0.28246779     0.63300
H138        H  0.03746060  0.06416705  0.25355012     0.12700
C139        C  0.11327301  0.50835675  0.22578197     0.55400
H140        H  0.15392286  0.05851077  0.25757402     0.08500
C141        C  0.14674310  0.07045161  0.30126105    -0.05300
C142        C  0.17714000  0.08427577  0.31357616    -0.06000
C143        C  0.20760997  0.11876635  0.31103396    -0.15600
C144        C  0.20734499  0.14067158  0.29594110    -0.01200
C145        C  0.17669195  0.12693969  0.28388547    -0.08800
C146        C  0.11554791  0.03209195  0.30373824     0.65500
H147        H  0.17787603  0.06779649  0.32497965     0.11000
C148        C  0.23993099  0.17775046  0.29185225     0.63900
H149        H  0.17640584  0.14265174  0.27198268     0.08300
F150        F  0.12055141  0.48608432  0.23710267    -0.19100
F151        F  0.14387420  0.52819854  0.21448731    -0.15400
F152        F  0.08372497  0.48670216  0.21471140    -0.18800
F153        F  0.10868853  0.13942272  0.28068579    -0.22200
F154        F  0.07950414  0.09291060  0.30072765    -0.23700
F155        F  0.04728524  0.10341589  0.27878497    -0.17700
F156        F  0.27251764  0.17604968  0.29096087    -0.20200
F157        F  0.24240122  0.20118024  0.30578693    -0.21300
F158        F  0.23609556  0.19163660  0.27495213    -0.18500
F159        F  0.11870521  0.01694152  0.32034589    -0.18600
F160        F  0.11626144  0.01128065  0.28912073    -0.22400
F161        F  0.08168291  0.03125851  0.30393794    -0.24100
C162        C  0.37606348  0.32627768  0.28531409    -0.10900
C163        C  0.40192679  0.32758313  0.27217444     0.11700
C164        C  0.41265536  0.30077194  0.27229201    -0.02700
C165        C  0.39821504  0.27426315  0.28628648    -0.05400
C166        C  0.37288130  0.27307585  0.29993083    -0.16200
C167        C  0.36091185  0.29929534  0.29920734     0.02700
C168        C  0.42213132  0.36071674  0.26093572     0.12700
C169        C  0.44043493  0.29977292  0.25859005     0.63300
H170        H  0.40720048  0.25422762  0.28652051     0.12700
C171        C  0.33361757  0.30016967  0.31325432     0.55400
H172        H  0.36895941  0.34762037  0.28498191     0.08500
C173        C  0.40837281  0.36648730  0.24402865    -0.05300
C174        C  0.43016964  0.39859102  0.23415129    -0.06000
C175        C  0.46612342  0.42400414  0.23994737    -0.15600
C176        C  0.47973050  0.41744418  0.25702783    -0.01200
C177        C  0.45678355  0.38643729  0.26742802    -0.08800
C178        C  0.37112407  0.33869768  0.23643157     0.65500
H179        H  0.41851568  0.40445902  0.22203024     0.11000
C180        C  0.51800640  0.44075894  0.26501451     0.63900
H181        H  0.46664428  0.38138110  0.28055626     0.08300
F182        F  0.32835869  0.32956796  0.31050996    -0.19100
F183        F  0.34665447  0.30206579  0.33125485    -0.15400
F184        F  0.29952565  0.26967956  0.31144845    -0.18800
F185        F  0.47313629  0.30901987  0.26788718    -0.22200
F186        F  0.44818360  0.32272782  0.24344580    -0.23700
F187        F  0.42655936  0.26535368  0.25165085    -0.17700
F188        F  0.53341267  0.41953132  0.27015902    -0.20200
F189        F  0.51533910  0.45830760  0.28069597    -0.21300
F190        F  0.54186847  0.46561387  0.25243135    -0.18500
F191        F  0.36362602  0.34904283  0.21930175    -0.18600
F192        F  0.34325144  0.33376160  0.24885086    -0.22400
F193        F  0.37087970  0.30638847  0.23404220    -0.24100
C194        C  0.40932644  0.02342251  0.26401511    -0.10900
C195        C  0.41904528  0.05915009  0.26015069     0.11700
C196        C  0.44542786  0.07808464  0.24589496    -0.02700
C197        C  0.46103593  0.06019204  0.23591546    -0.05400
C198        C  0.45122712  0.02411955  0.23957500    -0.16200
C199        C  0.42476314  0.00531698  0.25408649     0.02700
C200        C  0.40444210  0.07676484  0.27306609     0.12700
C201        C  0.45776329  0.11724604  0.24152170     0.63300
H202        H  0.98604755  0.07767111  0.22690848     0.12700
C203        C  0.41184785  0.96635959  0.25929798     0.55400
H204        H  0.38997033  0.01005694  0.27541647     0.08500
C205        C  0.36794587  0.07168769  0.27187288    -0.05300
C206        C  0.35536406  0.08661034  0.28587555    -0.06000
C207        C  0.37813397  0.10641681  0.30082249    -0.15600
C208        C  0.41454319  0.11101072  0.30203001    -0.01200
C209        C  0.42682729  0.09582210  0.28815446    -0.08800
C210        C  0.34248154  0.05059334  0.25592631     0.65500
H211        H  0.32769784  0.08331888  0.28512821     0.11000
C212        C  0.44021910  0.13098396  0.31812070     0.63900
H213        H  0.45424490  0.09850551  0.28899861     0.08300
F214        F  0.40034693  0.94535488  0.24357104    -0.19100
F215        F  0.39168289  0.45896052  0.27458620    -0.15400
F216        F  0.43999224  0.96317114  0.26780227    -0.18800
F217        F  0.47608408  0.13823474  0.25673350    -0.22200
F218        F  0.42738147  0.12144606  0.23755473    -0.23700
F219        F  0.98575912  0.13268876  0.22935935    -0.17700
F220        F  0.42187587  0.11812262  0.33502627    -0.20200
F221        F  0.45200451  0.16732236  0.31654658    -0.21300
F222        F  0.47137347  0.12669725  0.31822098    -0.18500
F223        F  0.30894131  0.05049781  0.25686220    -0.18600
F224        F  0.33527416  0.01535071  0.25661202    -0.22400
F225        F  0.35900788  0.06559563  0.23892407    -0.24100
C226        C  0.44440416  0.35809465  0.08547654    -0.10900
C227        C  0.41226766  0.32702274  0.08014945     0.11700
C228        C  0.39409509  0.32668695  0.06332517    -0.02700
C229        C  0.41036659  0.35730901  0.05166602    -0.05400
C230        C  0.44342540  0.38798125  0.05663349    -0.16200
C231        C  0.46027890  0.38894411  0.07405738     0.02700
C232        C  0.39724646  0.29597355  0.09313715     0.12700
C233        C  0.35752680  0.29437876  0.05790335     0.63300
H234        H  0.39751024  0.35751563  0.03851144     0.12700
C235        C  0.49378262  0.42282337  0.08100752     0.55400
H236        H  0.45687974  0.35791849  0.09876669     0.08500
C237        C  0.41079587  0.27123409  0.09348327    -0.05300
C238        C  0.39507306  0.24258861  0.10634295    -0.06000
C239        C  0.36638981  0.23797367  0.11861577    -0.15600
C240        C  0.35226478  0.26234446  0.11783408    -0.01200
C241        C  0.36915872  0.29183495  0.10558071    -0.08800
C242        C  0.44163717  0.27506665  0.08038964     0.65500
H243        H  0.40520647  0.22347168  0.10700269     0.11000
C244        C  0.31874884  0.25812777  0.12866882     0.63900
H245        H  0.35933713  0.31125701  0.10519367     0.08300
F246        F  0.50197828  0.41928179  0.09941759    -0.19100
F247        F  0.48675386  0.45139221  0.08006730    -0.15400
F248        F  0.52459675  0.43041790  0.07018815    -0.18800
F249        F  0.33059815  0.28890083  0.07105836    -0.22200
F250        F  0.36135847  0.26395437  0.05701241    -0.23700
F251        F  0.34538551  0.29919821  0.04064226    -0.17700
F252        F  0.32968443  0.28614903  0.14114468    -0.20200
F253        F  0.30068375  0.22618686  0.13840774    -0.21300
F254        F  0.29359092  0.25919719  0.11630298    -0.18500
F255        F  0.45000109  0.24755124  0.08290383    -0.18600
F256        F  0.47343635  0.30722957  0.08365218    -0.22400
F257        F  0.43111640  0.27438436  0.06198694    -0.24100
C258        C  0.13832184  0.08302147  0.08731792    -0.10900
C259        C  0.17138827  0.08344891  0.08242378     0.11700
C260        C  0.17365607  0.06667059  0.06577611    -0.02700
C261        C  0.14278593  0.05142249  0.05395451    -0.05400
C262        C  0.11022145  0.05235861  0.05843293    -0.16200
C263        C  0.10734143  0.06754523  0.07555523     0.02700
C264        C  0.20293339  0.10066112  0.09535146     0.12700
C265        C  0.20844333  0.06488385  0.06054600     0.63300
H266        H  0.14391030  0.03892285  0.04097083     0.12700
C267        C  0.07145343  0.06632623  0.08167152     0.55400
H268        H  0.13711290  0.09509488  0.10043207     0.08500
C269        C  0.22758773  0.13808355  0.09494158    -0.05300
C270        C  0.25814072  0.15207197  0.10699211    -0.06000
C271        C  0.26465415  0.12976100  0.11913286    -0.15600
C272        C  0.24037941  0.09208731  0.11900904    -0.01200
C273        C  0.20877550  0.07852538  0.10779036    -0.08800
C274        C  0.22124955  0.16304621  0.08208513     0.65500
H275        H  0.27707747  0.18073278  0.10720461     0.11000
C276        C  0.24722708  0.06475888  0.12934532     0.63900
H277        H  0.18943128  0.04989290  0.10790823     0.08300
F278        F  0.06399438  0.08812822  0.07013525    -0.19100
F279        F  0.07334093  0.07806200  0.09988896    -0.15400
F280        F  0.04251162  0.03142115  0.08077605    -0.18800
F281        F  0.21550296  0.04559971  0.07398369    -0.22200
F282        F  0.23842203  0.09915522  0.05928585    -0.23700
F283        F  0.20487841  0.04817788  0.04350285    -0.17700
F284        F  0.22234940  0.05027058  0.14405521    -0.20200
F285        F  0.28274755  0.07920737  0.13608597    -0.21300
F286        F  0.24204174  0.03735179  0.11730065    -0.18500
F287        F  0.24970180  0.19819181  0.08320680    -0.18600
F288        F  0.18854427  0.16241517  0.08702486    -0.22400
F289        F  0.21900019  0.15219176  0.06370120    -0.24100
C290        C  0.40605795  0.05280588  0.08009966    -0.10900
C291        C  0.41366859  0.08815114  0.07654464     0.11700
C292        C  0.43435763  0.10653315  0.06037635    -0.02700
C293        C  0.44653793  0.08848969  0.04816855    -0.05400
C294        C  0.43834238  0.05284428  0.05154136    -0.16200
C295        C  0.41757989  0.03449910  0.06772288     0.02700
C296        C  0.39940829  0.10498789  0.09010291     0.12700
C297        C  0.44393514  0.14511303  0.05615812     0.63300
H298        H  0.46296812  0.10224483  0.03590701     0.12700
C299        C  0.41712648  0.50248099  0.07618940     0.55400
H300        H  0.39064825  0.03955884  0.09269390     0.08500
C301        C  0.36178493  0.09660598  0.09030947    -0.05300
C302        C  0.34999483  0.11271509  0.10387301    -0.06000
C303        C  0.37462034  0.13774485  0.11676562    -0.15600
C304        C  0.41274453  0.14756543  0.11580590    -0.01200
C305        C  0.42400357  0.12949345  0.10311355    -0.08800
C306        C  0.33429070  0.07118221  0.07610606     0.65500
H307        H  0.32109678  0.10581314  0.10450302     0.11000
C308        C  0.44286515  0.17772641  0.12699258     0.63900
H309        H  0.45275533  0.13565024  0.10283042     0.08300
F310        F  0.39384774  0.47768178  0.06333574    -0.19100
F311        F  0.40015826  0.49249914  0.09360928    -0.15400
F312        F  0.45001136  0.50134792  0.07700955    -0.18800
F313        F  0.46723913  0.16756150  0.06979437    -0.22200
F314        F  0.41205249  0.14803911  0.05577909    -0.23700
F315        F  0.46169292  0.15683089  0.03900528    -0.17700
F316        F  0.45572362  0.16335981  0.14054054    -0.20200
F317        F  0.43092958  0.19933521  0.13545625    -0.21300
F318        F  0.47202964  0.19947487  0.11519963    -0.18500
F319        F  0.29949391  0.06797508  0.07838670    -0.18600
F320        F  0.33062767  0.03732005  0.07800703    -0.22400
F321        F  0.34655300  0.08386876  0.05816869    -0.24100
C322        C  0.41428393  0.12081317  0.18197631    -0.10900
C323        C  0.40838217  0.08919094  0.17300379     0.11700
C324        C  0.38449097  0.07704067  0.15740242    -0.02700
C325        C  0.36603481  0.09599598  0.15201111    -0.05400
C326        C  0.37400708  0.12937657  0.15981964    -0.16200
C327        C  0.39888026  0.14203832  0.17524740     0.02700
C328        C  0.42546738  0.06800173  0.18091745     0.12700
C329        C  0.37984089  0.04522050  0.14581593     0.63300
H330        H  0.34594777  0.08521475  0.14092625     0.12700
C331        C  0.41000618  0.17763452  0.18471574     0.55400
H332        H  0.43154060  0.12901426  0.19431970     0.08500
C333        C  0.46371774  0.07872295  0.17900873    -0.05300
C334        C  0.47725717  0.05703946  0.18709789    -0.06000
C335        C  0.45390974  0.02510648  0.19687861    -0.15600
C336        C  0.41528515  0.01314362  0.19738734    -0.01200
C337        C  0.40214030  0.03565531  0.19027643    -0.08800
C338        C  0.49022722  0.11302168  0.16867748     0.65500
H339        H  0.50661688  0.06573178  0.18655557     0.11000
C340        C  0.38658648  0.97646627  0.20451709     0.63900
H341        H  0.37286494  0.02728045  0.19155397     0.08300
F342        F  0.41819863  0.20436856  0.17158940    -0.19100
F343        F  0.44123216  0.18834830  0.19563403    -0.15400
F344        F  0.38162750  0.17435238  0.19625603    -0.18800
F345        F  0.35873751  0.04060367  0.12999614    -0.22200
F346        F  0.36259961  0.01388004  0.15625499    -0.23700
F347        F  0.41421046  0.05079650  0.13995865    -0.17700
F348        F  0.37015004  0.98024775  0.22062051    -0.20200
F349        F  0.40146142  0.95430192  0.20814131    -0.21300
F350        F  0.35954530  0.95981953  0.19108203    -0.18500
F351        F  0.52562781  0.11728341  0.16754599    -0.18600
F352        F  0.49245318  0.14244778  0.17788386    -0.22400
F353        F  0.47785835  0.11227267  0.15065197    -0.24100
C354        C  0.20874129  0.09008675  0.18091186    -0.10900
C355        C  0.18359267  0.09956602  0.17285762     0.11700
C356        C  0.19713365  0.12774651  0.15942432    -0.02700
C357        C  0.23495242  0.14485649  0.15447734    -0.05400
C358        C  0.25975154  0.13357620  0.16123088    -0.16200
C359        C  0.24659409  0.10643954  0.17536638     0.02700
C360        C  0.14424677  0.08115631  0.17987059     0.12700
C361        C  0.17319491  0.14045122  0.14934621     0.63300
H362        H  0.24482908  0.16635342  0.14421522     0.12700
C363        C  0.27182488  0.09476739  0.18488144     0.55400
H364        H  0.19828680  0.06945985  0.19167262     0.08500
C365        C  0.11737765  0.04659268  0.17373550    -0.05300
C366        C  0.08180042  0.02971770  0.18222919    -0.06000
C367        C  0.07219571  0.04644800  0.19650955    -0.15600
C368        C  0.09728101  0.08325458  0.20031527    -0.01200
C369        C  0.13334948  0.09933096  0.19257187    -0.08800
C370        C  0.12645781  0.02766540  0.15835040     0.65500
H371        H  0.06211929  0.00223166  0.17870388     0.11000
C372        C  0.08714776  0.10764866  0.21127998     0.63900
H373        H  0.15312917  0.12676725  0.19621886     0.08300
F374        F  0.29085086  0.08616547  0.17181944    -0.19100
F375        F  0.25207934  0.06483950  0.19620622    -0.15400
F376        F  0.29680300  0.12221067  0.19602271    -0.18800
F377        F  0.17829923  0.13984546  0.13021732    -0.22200
F378        F  0.18397783  0.17536944  0.15456406    -0.23700
F379        F  0.13574348  0.11951946  0.15301482    -0.17700
F380        F  0.10982074  0.12086159  0.22673141    -0.20200
F381        F  0.05063146  0.09069120  0.21710728    -0.21300
F382        F  0.09262802  0.13632526  0.19998859    -0.18500
F383        F  0.15378754  0.02021268  0.16431265    -0.18600
F384        F  0.13881732  0.04945724  0.14258095    -0.22400
F385        F  0.09579376  0.99562581  0.15339554    -0.24100
C386        C  0.37932044  0.29030915  0.18228163    -0.10900
C387        C  0.41202479  0.31632687  0.17344719     0.11700
C388        C  0.42717133  0.30515434  0.15875003    -0.02700
C389        C  0.40916395  0.26863734  0.15356743    -0.05400
C390        C  0.37460701  0.24292181  0.16111805    -0.16200
C391        C  0.35995782  0.25393880  0.17630903     0.02700
C392        C  0.43190371  0.35406378  0.18109535     0.12700
C393        C  0.46185457  0.33175964  0.14813771     0.63300
H394        H  0.42176887  0.25997366  0.14294962     0.12700
C395        C  0.32467869  0.22804933  0.18662143     0.55400
H396        H  0.36912744  0.29883910  0.19410483     0.08500
C397        C  0.42028316  0.38006949  0.17806797    -0.05300
C398        C  0.44058458  0.41461238  0.18629092    -0.06000
C399        C  0.47233892  0.42423067  0.19724863    -0.15600
C400        C  0.48567344  0.39903814  0.19856011    -0.01200
C401        C  0.46415254  0.36408207  0.19139162    -0.08800
C402        C  0.38658898  0.37134061  0.16622178     0.65500
H403        H  0.43088195  0.43394369  0.18484678     0.11000
C404        C  0.52410279  0.40953710  0.20561351     0.63900
H405        H  0.47294080  0.34415243  0.19336359     0.08300
F406        F  0.31304288  0.24572024  0.19886570    -0.19100
F407        F  0.33081343  0.20407454  0.19700478    -0.15400
F408        F  0.29637308  0.20960883  0.17415656    -0.18800
F409        F  0.49252962  0.34340923  0.15948021    -0.22200
F410        F  0.45840105  0.36101463  0.14238576    -0.23700
F411        F  0.46788492  0.31656553  0.13231977    -0.17700
F412        F  0.52768858  0.41948667  0.22409421    -0.20200
F413        F  0.04932577  0.43680698  0.18885901    -0.21300
F414        F  0.03312251  0.38054724  0.19727421    -0.18500
F415        F  0.38066338  0.40052444  0.16445635    -0.18600
F416        F  0.35530790  0.34340736  0.17430818    -0.22400
F417        F  0.39151442  0.36143021  0.14847910    -0.24100
C418        C  0.27361182  0.37900303  0.93463149    -0.10900
C419        C  0.30590220  0.40636541  0.92664665     0.11700
C420        C  0.30436007  0.42062864  0.90901043    -0.02700
C421        C  0.27033172  0.40486489  0.89939134    -0.05400
C422        C  0.23810123  0.37523003  0.90680464    -0.16200
C423        C  0.23913102  0.36790882  0.92634446     0.02700
C424        C  0.33854654  0.42339198  0.93899579     0.12700
C425        C  0.33844889  0.45206826  0.90048150     0.63300
H426        H  0.26886964  0.41622301  0.88614201     0.12700
C427        C  0.20906904  0.36299217  0.94033203     0.55400
H428        H  0.27465182  0.37099288  0.94897582     0.08500
C429        C  0.34200632  0.44857041  0.95290776    -0.05300
C430        C  0.36981960  0.45853374  0.96639331    -0.06000
C431        C  0.39443227  0.44480546  0.96626035    -0.15600
C432        C  0.39123918  0.41982948  0.95231629    -0.01200
C433        C  0.36301938  0.40940674  0.93890759    -0.08800
C434        C  0.31742702  0.46585044  0.95443163     0.65500
H435        H  0.37280269  0.47789593  0.97700250     0.11000
C436        C  0.41635467  0.40304340  0.95209329     0.63900
H437        H  0.35920969  0.38955755  0.92846255     0.08300
F438        F  0.18597081  0.37444090  0.93278697    -0.19100
F439        F  0.22432085  0.38382063  0.95611123    -0.15400
F440        F  0.18931384  0.32759163  0.94621206    -0.18800
F441        F  0.36512787  0.44206687  0.89703410    -0.22200
F442        F  0.35265999  0.48085851  0.91259618    -0.23700
F443        F  0.33033159  0.46331204  0.88382532    -0.17700
F444        F  0.40541262  0.37618618  0.93885262    -0.20200
F445        F  0.41543993  0.38804091  0.96944400    -0.21300
F446        F  0.45233811  0.42885620  0.94789158    -0.18500
F447        F  0.33943268  0.50282406  0.95371054    -0.18600
F448        F  0.29882648  0.45639221  0.97143053    -0.22400
F449        F  0.29149021  0.45610416  0.94038735    -0.24100
C450        C  0.07896873  0.17056078  0.95936994    -0.10900
C451        C  0.09638113  0.16692234  0.94327330     0.11700
C452        C  0.09979091  0.13571492  0.94091471    -0.02700
C453        C  0.08408007  0.10830406  0.95448795    -0.05400
C454        C  0.06553082  0.11121039  0.97037940    -0.16200
C455        C  0.06316405  0.14308700  0.97302947     0.02700
C456        C  0.11129729  0.19649191  0.92918440     0.12700
C457        C  0.11942474  0.13114724  0.92397401     0.63300
H458        H  0.08611164  0.08408632  0.95273778     0.12700
C459        C  0.04316990  0.14784959  0.98976568     0.55400
H460        H  0.07759651  0.19514323  0.96102025     0.08500
C461        C  0.08861449  0.20016646  0.91552797    -0.05300
C462        C  0.10512679  0.22844638  0.90233995    -0.06000
C463        C  0.14289889  0.25435079  0.90325451    -0.15600
C464        C  0.16573193  0.24913279  0.91634895    -0.01200
C465        C  0.14926137  0.22084217  0.92936732    -0.08800
C466        C  0.04691794  0.17561229  0.91562064     0.65500
H467        H  0.08802618  0.23230157  0.89213701     0.11000
C468        C  0.20760176  0.27054134  0.91660356     0.63900
H469        H  0.16645220  0.21730892  0.93968375     0.08300
F470        F  0.04095739  0.17917836  0.98843761    -0.19100
F471        F  0.06200786  0.14948701  0.00601499    -0.15400
F472        F  0.00739506  0.11935789  0.99092785    -0.18800
F473        F  0.15629482  0.15736115  0.92383910    -0.22200
F474        F  0.10281206  0.13399599  0.90781229    -0.23700
F475        F  0.11801120  0.09800667  0.92395062    -0.17700
F476        F  0.21935575  0.28757625  0.93361563    -0.20200
F477        F  0.22180862  0.29575663  0.90254057    -0.21300
F478        F  0.22189477  0.24740729  0.91428343    -0.18500
F479        F  0.03030799  0.18201096  0.90037302    -0.18600
F480        F  0.03182648  0.18131677  0.93170354    -0.22400
F481        F  0.03863852  0.14003517  0.91517522    -0.24100
C482        C  0.11942497  0.43755167  0.95979352    -0.10900
C483        C  0.09576064  0.41456078  0.94600050     0.11700
C484        C  0.05836730  0.40679191  0.94529419    -0.02700
C485        C  0.04613109  0.42346835  0.95816545    -0.05400
C486        C  0.06947571  0.44620731  0.97207868    -0.16200
C487        C  0.10679460  0.45360132  0.97304821     0.02700
C488        C  0.10967448  0.39652334  0.93327965     0.12700
C489        C  0.03110424  0.38003452  0.93145331     0.63300
H490        H  0.01765608  0.41809937  0.95780558     0.12700
C491        C  0.13319801  0.47880635  0.98762015     0.55400
H492        H  0.14770565  0.44239808  0.96019990     0.08500
C493        C  0.12811943  0.41216078  0.91626340    -0.05300
C494        C  0.13708982  0.39148994  0.90420764    -0.06000
C495        C  0.12656396  0.35530007  0.90820606    -0.15600
C496        C  0.10794188  0.34004633  0.92551697    -0.01200
C497        C  0.10135770  0.36159896  0.93796775    -0.08800
C498        C  0.13858415  0.45054749  0.91104720     0.65500
H499        H  0.15301118  0.40375918  0.89160767     0.11000
C500        C  0.09309012  0.30143399  0.93173289     0.63900
H501        H  0.08750873  0.35031055  0.95122620     0.08300
F502        F  0.16882489  0.48416328  0.98516463    -0.19100
F503        F  0.12117977  0.46454805  0.00534036    -0.15400
F504        F  0.13462793  0.51186651  0.98636459    -0.18800
F505        F  0.02532771  0.34597372  0.93562586    -0.22200
F506        F  0.04476020  0.38913210  0.91338309    -0.23700
F507        F  0.99710161  0.37901812  0.93213836    -0.17700
F508        F  0.11316884  0.30009368  0.94685465    -0.20200
F509        F  0.09450009  0.28025441  0.91783575    -0.21300
F510        F  0.05631511  0.28702864  0.93711397    -0.18500
F511        F  0.15515558  0.46009280  0.89352102    -0.18600
F512        F  0.16320349  0.47382033  0.92402843    -0.22400
F513        F  0.10734536  0.45458587  0.91081915    -0.24100
C514        C  0.06792761  0.44253520  0.85264919    -0.10900
C515        C  0.05671143  0.40802626  0.84563216     0.11700
C516        C  0.02721547  0.39334377  0.83266417    -0.02700
C517        C  0.01224728  0.41490973  0.82607089    -0.05400
C518        C  0.02691275  0.45134099  0.83102495    -0.16200
C519        C  0.05353815  0.46453240  0.84574919     0.02700
C520        C  0.07646301  0.38812828  0.85216512     0.12700
C521        C  0.01205571  0.35526183  0.82548569     0.63300
H522        H  0.98960773  0.40372710  0.81625548     0.12700
C523        C  0.06735035  0.99935825  0.85680445     0.55400
H524        H  0.08900659  0.45246133  0.86336745     0.08500
C525        C  0.11148249  0.39553230  0.84489487    -0.05300
C526        C  0.12914294  0.37698714  0.85217267    -0.06000
C527        C  0.11356151  0.35089247  0.86625847    -0.15600
C528        C  0.07641485  0.34069072  0.87201335    -0.01200
C529        C  0.05968083  0.36090513  0.86570668    -0.08800
C530        C  0.12972238  0.42208143  0.82901975     0.65500
H531        H  0.15563949  0.38313698  0.84696593     0.11000
C532        C  0.05165210  0.30744314  0.88348278     0.63900
H533        H  0.03243201  0.35439908  0.87095190     0.08300
F534        F  0.09533372  0.00643054  0.86946803    -0.19100
F535        F  0.03880653  0.00022878  0.86651429    -0.15400
F536        F  0.08144201  0.02631861  0.84345801    -0.18800
F537        F  0.99602958  0.33106319  0.84009128    -0.22200
F538        F  0.04029381  0.35087492  0.81772708    -0.23700
F539        F  0.48782428  0.35067347  0.81158020    -0.17700
F540        F  0.04266398  0.31736801  0.90028352    -0.20200
F541        F  0.06751911  0.28613158  0.88694428    -0.21300
F542        F  0.01924353  0.28681661  0.87374096    -0.18500
F543        F  0.16404588  0.42608513  0.82420674    -0.18600
F544        F  0.13479248  0.45545594  0.83403677    -0.22400
F545        F  0.10721781  0.40966170  0.81351265    -0.24100
C546        C  0.10055037  0.20792497  0.84048538    -0.10900
C547        C  0.11311329  0.18486458  0.84720090     0.11700
C548        C  0.14381408  0.19871763  0.85941917    -0.02700
C549        C  0.15892647  0.23454379  0.86555693    -0.05400
C550        C  0.14349299  0.25664096  0.86073592    -0.16200
C551        C  0.11494662  0.24356678  0.84694001     0.02700
C552        C  0.09340114  0.14645121  0.84100769     0.12700
C553        C  0.16032428  0.17572440  0.86619152     0.63300
H554        H  0.18225100  0.24520559  0.87499724     0.12700
C555        C  0.09878404  0.26594310  0.83894452     0.55400
H556        H  0.07842874  0.19716514  0.83031789     0.08500
C557        C  0.05808167  0.12098436  0.84810093    -0.05300
C558        C  0.03998856  0.08595896  0.84053870    -0.06000
C559        C  0.05623966  0.07491369  0.82659618    -0.15600
C560        C  0.09369255  0.09979420  0.82119797    -0.01200
C561        C  0.11047310  0.13535970  0.82772137    -0.08800
C562        C  0.03977511  0.13081173  0.86372235     0.65500
H563        H  0.50773484  0.06701120  0.84274726     0.11000
C564        C  0.11870763  0.09083477  0.80951274     0.63900
H565        H  0.13785085  0.15467111  0.82261689     0.08300
F566        F  0.06925348  0.24627867  0.82715599    -0.19100
F567        F  0.12537233  0.29426305  0.82857695    -0.15400
F568        F  0.08585864  0.27850723  0.85318145    -0.18800
F569        F  0.17855720  0.16974837  0.85154507    -0.22200
F570        F  0.13274891  0.14304498  0.87289486    -0.23700
F571        F  0.18549067  0.19216631  0.88047156    -0.17700
F572        F  0.12929579  0.11156019  0.79337919    -0.20200
F573        F  0.10235429  0.05535916  0.80471540    -0.21300
F574        F  0.15018368  0.09853075  0.81963224    -0.18500
F575        F  0.49883550  0.10196280  0.86558677    -0.18600
F576        F  0.03086748  0.15639227  0.85749503    -0.22400
F577        F  0.06388535  0.14450305  0.87858011    -0.24100
C578        C  0.37769674  0.45478120  0.84644551    -0.10900
C579        C  0.35596588  0.41896302  0.84084277     0.11700
C580        C  0.37166807  0.40483937  0.82783692    -0.02700
C581        C  0.40851001  0.42694088  0.82138422    -0.05400
C582        C  0.42992231  0.46332548  0.82653197    -0.16200
C583        C  0.41410967  0.47715315  0.83964948     0.02700
C584        C  0.31673704  0.39870346  0.84835521     0.12700
C585        C  0.35097770  0.36727454  0.81979798     0.63300
H586        H  0.42011528  0.41608988  0.81131696     0.12700
C587        C  0.43370797  0.01258516  0.84639581     0.55400
H588        H  0.36549129  0.46542582  0.85615026     0.08500
C589        C  0.30421815  0.37079093  0.86201136    -0.05300
C590        C  0.26691581  0.35433335  0.86826727    -0.06000
C591        C  0.24202827  0.36658371  0.86303031    -0.15600
C592        C  0.25501214  0.39485391  0.84943771    -0.01200
C593        C  0.29162783  0.40979731  0.84227241    -0.08800
C594        C  0.32887581  0.35810544  0.87124147     0.65500
H595        H  0.25798860  0.33305620  0.87848757     0.11000
C596        C  0.23100405  0.40990744  0.84246786     0.63900
H597        H  0.30141111  0.43116923  0.83196275     0.08300
F598        F  0.41239820  0.52508528  0.85646738    -0.19100
F599        F  0.44709625  0.03590156  0.83125534    -0.15400
F600        F  0.46223351  0.01607493  0.85773417    -0.18800
F601        F  0.31449836  0.34817031  0.82567404    -0.22200
F602        F  0.36880934  0.34829904  0.82498764    -0.23700
F603        F  0.35118852  0.36960286  0.80046235    -0.17700
F604        F  0.25072559  0.44086054  0.83183298    -0.20200
F605        F  0.21575976  0.41852366  0.85753425    -0.21300
F606        F  0.20395652  0.38455959  0.83117203    -0.18500
F607        F  0.32862220  0.36278064  0.89039226    -0.18600
F608        F  0.36525745  0.37637324  0.86515415    -0.22400
F609        F  0.31502640  0.32193898  0.86769189    -0.24100
C610        C  0.39559965  0.44638958  0.75567247    -0.10900
C611        C  0.36456737  0.44530482  0.76391803     0.11700
C612        C  0.36772933  0.46116848  0.78152257    -0.02700
C613        C  0.40240126  0.47694622  0.79051518    -0.05400
C614        C  0.43378584  0.47603114  0.78302876    -0.16200
C615        C  0.43097462  0.46531532  0.76363633     0.02700
C616        C  0.33021210  0.42978127  0.75265624     0.12700
C617        C  0.33433394  0.46039171  0.79094085     0.63300
H618        H  0.40505712  0.49066643  0.80350483     0.12700
C619        C  0.46771569  0.98644397  0.74912985     0.55400
H620        H  0.39226147  0.43466816  0.74188849     0.08500
C621        C  0.32596832  0.44894157  0.73742564    -0.05300
C622        C  0.29541467  0.43083447  0.72556655    -0.06000
C623        C  0.26935283  0.39457078  0.72844155    -0.15600
C624        C  0.27308477  0.37561745  0.74394268    -0.01200
C625        C  0.30381027  0.39370737  0.75577417    -0.08800
C626        C  0.35410671  0.48799139  0.73329813     0.65500
H627        H  0.29197303  0.44472049  0.71364138     0.11000
C628        C  0.24572244  0.33618102  0.74757201     0.63900
H629        H  0.30809317  0.37958121  0.76731612     0.08300
F630        F  0.45570481  0.98724385  0.73113290    -0.19100
F631        F  0.48190233  0.46026164  0.75078382    -0.15400
F632        F  0.48881094  0.02206707  0.75419726    -0.18800
F633        F  0.30764470  0.42514595  0.79436264    -0.22200
F634        F  0.31948670  0.47636612  0.77952783    -0.23700
F635        F  0.34351265  0.47843393  0.80781045    -0.17700
F636        F  0.25732988  0.32198336  0.76185201    -0.20200
F637        F  0.24175999  0.31639162  0.73159808    -0.21300
F638        F  0.21167230  0.33239186  0.75269627    -0.18500
F639        F  0.34231666  0.50230102  0.71914605    -0.18600
F640        F  0.39055026  0.98775811  0.72537799    -0.22400
F641        F  0.35979371  0.50860597  0.74908461    -0.24100
C642        C  0.07399420  0.10367666  0.75587882    -0.10900
C643        C  0.06380813  0.12938121  0.76051940     0.11700
C644        C  0.04145646  0.12409819  0.77652330    -0.02700
C645        C  0.03230621  0.09397912  0.78815214    -0.05400
C646        C  0.04454782  0.06895947  0.78424898    -0.16200
C647        C  0.06530010  0.07378982  0.76733096     0.02700
C648        C  0.07818670  0.16157600  0.74814444     0.12700
C649        C  0.02628089  0.14934488  0.78084677     0.63300
H650        H  0.51308694  0.08872960  0.79927130     0.12700
C651        C  0.08041637  0.05001227  0.76022092     0.55400
H652        H  0.09020618  0.10772669  0.74319762     0.08500
C653        C  0.11452364  0.19070762  0.75033887    -0.05300
C654        C  0.12863758  0.21820832  0.73675519    -0.06000
C655        C  0.10846663  0.21671916  0.72070480    -0.15600
C656        C  0.07226059  0.18736062  0.71834757    -0.01200
C657        C  0.05762309  0.16023003  0.73226087    -0.08800
C658        C  0.13891540  0.19208856  0.76655853     0.65500
H659        H  0.15613266  0.24100610  0.73835759     0.11000
C660        C  0.04917244  0.18479195  0.70135108     0.63900
H661        H  0.03038925  0.13709828  0.73059130     0.08300
F662        F  0.11830139  0.07043428  0.75739353    -0.19100
F663        F  0.06394498  0.03509229  0.74333113    -0.15400
F664        F  0.07455225  0.02287799  0.77227347    -0.18800
F665        F  0.50881705  0.15359575  0.76645620    -0.22200
F666        F  0.05491921  0.18405536  0.78292680    -0.23700
F667        F  0.50714822  0.14118133  0.79712578    -0.17700
F668        F  0.06560903  0.18025472  0.68544631    -0.20200
F669        F  0.04656283  0.21582032  0.69950410    -0.21300
F670        F  0.01355688  0.15602214  0.70274555    -0.18500
F671        F  0.17259238  0.22358037  0.76643606    -0.18600
F672        F  0.14607155  0.16369128  0.76535032    -0.22400
F673        F  0.12146156  0.18996049  0.78343291    -0.24100
C674        C  0.07023304  0.43520152  0.77115633    -0.10900
C675        C  0.04073405  0.40980674  0.76063428     0.11700
C676        C  0.00404258  0.40109825  0.76527514    -0.02700
C677        C  0.99864257  0.42126622  0.77923695    -0.05400
C678        C  0.02855067  0.44982769  0.78829648    -0.16200
C679        C  0.06516162  0.45545678  0.78506810     0.02700
C680        C  0.05032028  0.39434560  0.74445938     0.12700
C681        C  0.97102426  0.37169969  0.75513969     0.63300
H682        H  0.47158252  0.41965970  0.78266743     0.12700
C683        C  0.10273888  0.98367367  0.79723018     0.55400
H684        H  0.09804491  0.44027916  0.76783437     0.08500
C685        C  0.06823099  0.41553085  0.72839834    -0.05300
C686        C  0.08469196  0.40264765  0.71551971    -0.06000
C687        C  0.08314383  0.36934811  0.71823432    -0.15600
C688        C  0.06087171  0.34624249  0.73292391    -0.01200
C689        C  0.04587219  0.35975194  0.74623582    -0.08800
C690        C  0.07106727  0.45210346  0.72523371     0.65500
H691        H  0.10082084  0.41948182  0.70388298     0.11000
C692        C  0.05296131  0.30758422  0.73473229     0.63900
H693        H  0.03213141  0.34395139  0.75859923     0.08300
F694        F  0.12299972  0.01234398  0.78532301    -0.19100
F695        F  0.12540132  0.96945815  0.80160462    -0.15400
F696        F  0.09521628  0.99579023  0.81354732    -0.18800
F697        F  0.96874803  0.33880739  0.75880379    -0.22200
F698        F  0.97483816  0.37816703  0.73604852    -0.23700
F699        F  0.43763559  0.37554070  0.76006642    -0.17700
F700        F  0.08291150  0.30657068  0.74266420    -0.20200
F701        F  0.04595223  0.29159432  0.71729849    -0.21300
F702        F  0.02211383  0.28749705  0.74592540    -0.18500
F703        F  0.08454846  0.46553341  0.70751187    -0.18600
F704        F  0.09472049  0.47646426  0.73813334    -0.22400
F705        F  0.03641086  0.44931153  0.72705360    -0.24100
C706        C  0.28571094  0.25238618  0.42877661    -0.10900
C707        C  0.25574598  0.25738071  0.42400509     0.11700
C708        C  0.23964356  0.24735942  0.40607984    -0.02700
C709        C  0.25418676  0.23224588  0.39340658    -0.05400
C710        C  0.28429066  0.22700415  0.39801206    -0.16200
C711        C  0.30040216  0.23716470  0.41617480     0.02700
C712        C  0.24275804  0.27481019  0.43774116     0.12700
C713        C  0.20758049  0.25316922  0.40026859     0.63300
H714        H  0.24196922  0.22437320  0.37967044     0.12700
C715        C  0.33322259  0.23284012  0.42241260     0.55400
H716        H  0.29751199  0.26067206  0.44257790     0.08500
C717        C  0.21510120  0.25490653  0.45123765    -0.05300
C718        C  0.19985617  0.27262130  0.46155164    -0.06000
C719        C  0.21317321  0.30983337  0.45969321    -0.15600
C720        C  0.24440496  0.33029185  0.44794012    -0.01200
C721        C  0.25799424  0.31215865  0.43675454    -0.08800
C722        C  0.20208515  0.21535103  0.45478472     0.65500
H723        H  0.17608411  0.25707887  0.47046698     0.11000
C724        C  0.26419353  0.37097065  0.44730187     0.63900
H725        H  0.28024458  0.32701434  0.42679720     0.08300
F726        F  0.32278690  0.19677096  0.42375906    -0.19100
F727        F  0.34616937  0.24787250  0.43980969    -0.15400
F728        F  0.36219289  0.24964665  0.40973995    -0.18800
F729        F  0.21889139  0.28949994  0.40012380    -0.22200
F730        F  0.17830661  0.23593048  0.41268800    -0.23700
F731        F  0.19485683  0.23989340  0.38256613    -0.17700
F732        F  0.29987523  0.38478494  0.44024865    -0.20200
F733        F  0.26686541  0.38432833  0.46515761    -0.21300
F734        F  0.24533512  0.38270298  0.43587441    -0.18500
F735        F  0.17455000  0.20100928  0.46837592    -0.18600
F736        F  0.23163353  0.21138588  0.46087739    -0.22400
F737        F  0.18827650  0.19587590  0.43856418    -0.24100
C738        C  0.07749719  0.28821512  0.41579018    -0.10900
C739        C  0.04703334  0.29299252  0.41956956     0.11700
C740        C  0.04420409  0.30710188  0.43693453    -0.02700
C741        C  0.07291256  0.31676427  0.44988059    -0.05400
C742        C  0.10289457  0.31021927  0.44679377    -0.16200
C743        C  0.10488712  0.29517265  0.42921031     0.02700
C744        C  0.01530370  0.27548159  0.40675284     0.12700
C745        C  0.01056950  0.31101009  0.44201461     0.63300
H746        H  0.07202042  0.32979388  0.46265716     0.12700
C747        C  0.13401120  0.28477490  0.42393637     0.55400
H748        H  0.07850167  0.27679364  0.40240513     0.08500
C749        C  0.01172294  0.29203869  0.39026598    -0.05300
C750        C  0.48316335  0.26853541  0.37518220    -0.06000
C751        C  0.45659157  0.23342194  0.38045268    -0.15600
C752        C  0.46255653  0.21706712  0.39642121    -0.01200
C753        C  0.49303647  0.23777248  0.40769857    -0.08800
C754        C  0.04041489  0.33016331  0.38486886     0.65500
H755        H  0.47862328  0.28013506  0.36261082     0.11000
C756        C  0.43721590  0.17786785  0.40165846     0.63900
H757        H  0.49737060  0.22624902  0.42037955     0.08300
F758        F  0.16373311  0.31332970  0.41517951    -0.19100
F759        F  0.11973351  0.25604369  0.41171340    -0.15400
F760        F  0.14581613  0.27406288  0.43935124    -0.18800
F761        F  0.97895820  0.27782977  0.44169417    -0.22200
F762        F  0.00655518  0.33347319  0.42941230    -0.23700
F763        F  0.01361046  0.32528509  0.45969537    -0.17700
F764        F  0.42726509  0.15666563  0.38582201    -0.20200
F765        F  0.40571753  0.17417490  0.41052987    -0.21300
F766        F  0.45459396  0.16521941  0.41366097    -0.18500
F767        F  0.03149783  0.34098844  0.36827601    -0.18600
F768        F  0.07465598  0.33225718  0.38258668    -0.22400
F769        F  0.04296730  0.35384861  0.39865297    -0.24100
C770        C  0.21162146  0.45316937  0.42966548    -0.10900
C771        C  0.24833266  0.47696228  0.43409405     0.11700
C772        C  0.26366647  0.47166032  0.45069719    -0.02700
C773        C  0.24224665  0.44012286  0.46137457    -0.05400
C774        C  0.20597139  0.41465215  0.45613710    -0.16200
C775        C  0.18981995  0.42258732  0.44051577     0.02700
C776        C  0.26778259  0.50829907  0.42134204     0.12700
C777        C  0.30204057  0.49921346  0.45710920     0.63300
H778        H  0.25373202  0.43499132  0.47386283     0.12700
C779        C  0.14975747  0.39998162  0.43500440     0.55400
H780        H  0.20009594  0.45877367  0.41729730     0.08500
C781        C  0.28109904  0.50507177  0.40352257    -0.05300
C782        C  0.29028583  0.03106340  0.39065294    -0.06000
C783        C  0.28989510  0.06275971  0.39553471    -0.15600
C784        C  0.28005590  0.06666700  0.41422890    -0.01200
C785        C  0.26848339  0.03760021  0.42679874    -0.08800
C786        C  0.28386386  0.47187988  0.39839346     0.65500
H787        H  0.29862791  0.02872473  0.37656137     0.11000
C788        C  0.28100321  0.10089982  0.42104731     0.63900
H789        H  0.25867679  0.03910993  0.44065343     0.08300
F790        F  0.14605515  0.37135699  0.42456181    -0.19100
F791        F  0.13763955  0.41924599  0.42417504    -0.15400
F792        F  0.12745475  0.38840776  0.45072217    -0.18800
F793        F  0.30472928  0.02822200  0.46080876    -0.22200
F794        F  0.32805554  0.00034593  0.44306130    -0.23700
F795        F  0.31191743  0.48854441  0.47346765    -0.17700
F796        F  0.26559904  0.09672009  0.43876980    -0.20200
F797        F  0.26130038  0.11079750  0.40903024    -0.21300
F798        F  0.31736534  0.12816941  0.42196186    -0.18500
F799        F  0.29926222  0.47500893  0.38076334    -0.18600
F800        F  0.24903754  0.44192373  0.39846969    -0.22400
F801        F  0.30588613  0.46673240  0.41118221    -0.24100
C802        C  0.26670703  0.21351510  0.60071362    -0.10900
C803        C  0.28690330  0.25059554  0.59817631     0.11700
C804        C  0.31442954  0.26510811  0.58404984    -0.02700
C805        C  0.31944074  0.24130010  0.57222290    -0.05400
C806        C  0.29910222  0.20362971  0.57461220    -0.16200
C807        C  0.27208588  0.18963574  0.58934310     0.02700
C808        C  0.27592699  0.27233695  0.61014203     0.12700
C809        C  0.33811654  0.30542699  0.58157819     0.63300
H810        H  0.33916123  0.25212117  0.56084154     0.12700
C811        C  0.24702551  0.14998150  0.59277515     0.55400
H812        H  0.24584796  0.20343264  0.61170579     0.08500
C813        C  0.24645188  0.27874830  0.60506557    -0.05300
C814        C  0.22998154  0.28973015  0.61889154    -0.06000
C815        C  0.24201609  0.29487944  0.63746249    -0.15600
C816        C  0.27285229  0.29070700  0.64242151    -0.01200
C817        C  0.28915725  0.27908644  0.62862024    -0.08800
C818        C  0.23026568  0.27357520  0.58557358     0.65500
H819        H  0.20687330  0.29385524  0.61516362     0.11000
C820        C  0.28724623  0.29697169  0.66232174     0.63900
H821        H  0.31126880  0.27351962  0.63233897     0.08300
F822        F  0.22792545  0.13462124  0.57663560    -0.19100
F823        F  0.22087119  0.14305432  0.60668692    -0.15400
F824        F  0.26778584  0.13443286  0.59844845    -0.18800
F825        F  0.35709821  0.32014254  0.59796043    -0.22200
F826        F  0.31605731  0.32062749  0.57749675    -0.23700
F827        F  0.36378413  0.31416867  0.56722155    -0.17700
F828        F  0.31606255  0.28942546  0.66445862    -0.20200
F829        F  0.25901681  0.27515422  0.67454343    -0.21300
F830        F  0.30015301  0.33252211  0.66703445    -0.18500
F831        F  0.23379318  0.30583514  0.57923619    -0.18600
F832        F  0.19302472  0.24833882  0.58636110    -0.22400
F833        F  0.24737671  0.26234958  0.57270258    -0.24100
C834        C  0.45596936  0.23911196  0.58522445    -0.10900
C835        C  0.45756141  0.21525501  0.59826903     0.11700
C836        C  0.42706614  0.18016171  0.60005467    -0.02700
C837        C  0.39758699  0.16911077  0.58730713    -0.05400
C838        C  0.39693236  0.19227541  0.57332783    -0.16200
C839        C  0.42537073  0.22883667  0.57337478     0.02700
C840        C  0.48922350  0.22974443  0.61149057     0.12700
C841        C  0.42525078  0.15490168  0.61562035     0.63300
H842        H  0.37463213  0.14201375  0.58814413     0.12700
C843        C  0.42386629  0.25890940  0.56277054     0.55400
H844        H  0.47819393  0.26676326  0.58496066     0.08500
C845        C  0.02474577  0.24021896  0.60715906    -0.05300
C846        C  0.05488533  0.25626076  0.61945510    -0.06000
C847        C  0.05210713  0.27085164  0.63650015    -0.15600
C848        C  0.01807175  0.26880991  0.64190659    -0.01200
C849        C  0.48529623  0.24492407  0.62812914    -0.08800
C850        C  0.02947306  0.22545748  0.58868201     0.65500
H851        H  0.08121992  0.25811474  0.61573496     0.11000
C852        C  0.01324506  0.28255519  0.66074540     0.63900
H853        H  0.45897657  0.24385629  0.63092899     0.08300
F854        F  0.45382611  0.27523964  0.55077531    -0.19100
F855        F  0.42534661  0.28412542  0.57538559    -0.15400
F856        F  0.39220110  0.24750980  0.55251493    -0.18800
F857        F  0.42542783  0.16974530  0.63281479    -0.22200
F858        F  0.95715790  0.15843463  0.61614893    -0.23700
F859        F  0.39339546  0.12183863  0.61465831    -0.17700
F860        F  0.52828625  0.31448030  0.65817097    -0.20200
F861        F  0.02418848  0.26762142  0.67493759    -0.21300
F862        F  0.97669634  0.27359659  0.66410166    -0.18500
F863        F  0.06552200  0.23220566  0.58594075    -0.18600
F864        F  0.02071256  0.24112918  0.57399074    -0.22400
F865        F  0.00663867  0.18870716  0.58844880    -0.24100
C866        C  0.23946765  0.01005854  0.63131910    -0.10900
C867        C  0.24097644  0.00294920  0.61223423     0.11700
C868        C  0.22429148  0.46536387  0.60366408    -0.02700
C869        C  0.21101375  0.43799403  0.61737030    -0.05400
C870        C  0.21980872  0.44565000  0.63633809    -0.16200
C871        C  0.24215818  0.48161884  0.64205764     0.02700
C872        C  0.25645052  0.03326469  0.59866533     0.12700
C873        C  0.21530115  0.45570177  0.58315811     0.63300
H874        H  0.19400250  0.41018062  0.61336422     0.12700
C875        C  0.25222863  0.49066320  0.66246749     0.55400
H876        H  0.24950807  0.03759472  0.63560337     0.08500
C877        C  0.23556519  0.04893086  0.59181025    -0.05300
C878        C  0.25107201  0.07506587  0.57753857    -0.06000
C879        C  0.28664156  0.08663153  0.57011810    -0.15600
C880        C  0.30534199  0.06764546  0.57578753    -0.01200
C881        C  0.29133547  0.04353627  0.59094315    -0.08800
C882        C  0.19759481  0.03884711  0.59986710     0.65500
H883        H  0.23543644  0.08696733  0.57224547     0.11000
C884        C  0.33679235  0.06759922  0.56509247     0.63900
H885        H  0.30648174  0.03026142  0.59582734     0.08300
F886        F  0.18248508  0.97145283  0.66960081    -0.19100
F887        F  0.27425858  0.47635456  0.66826368    -0.15400
F888        F  0.22036210  0.47638547  0.67335370    -0.18800
F889        F  0.24763300  0.46706234  0.57293641    -0.22200
F890        F  0.19610837  0.47200739  0.57607096    -0.23700
F891        F  0.19369891  0.41899863  0.58070799    -0.17700
F892        F  0.36901581  0.08460401  0.57536610    -0.20200
F893        F  0.34150312  0.08353464  0.54785432    -0.21300
F894        F  0.32893168  0.03254771  0.56196715    -0.18500
F895        F  0.18094639  0.05550295  0.59032075    -0.18600
F896        F  0.20107734  0.04924289  0.61838398    -0.22400
F897        F  0.17447792  0.00212850  0.59884666    -0.24100
C898        C  0.19279086  0.24577190  0.51188401    -0.10900
C899        C  0.23061311  0.26184495  0.51592357     0.11700
C900        C  0.25216023  0.29975664  0.51300199    -0.02700
C901        C  0.23586717  0.31810025  0.50385222    -0.05400
C902        C  0.19730886  0.30242462  0.50123723    -0.16200
C903        C  0.17533543  0.26609628  0.50746310     0.02700
C904        C  0.24707410  0.23830449  0.52163383     0.12700
C905        C  0.29215827  0.32223871  0.51912264     0.63300
H906        H  0.25373334  0.34514603  0.49879870     0.12700
C907        C  0.13397649  0.24678721  0.51042672     0.55400
H908        H  0.17590912  0.21698520  0.51318528     0.08500
C909        C  0.23210383  0.21080872  0.53565975    -0.05300
C910        C  0.25101967  0.19154550  0.53989576    -0.06000
C911        C  0.28613542  0.20047019  0.53245221    -0.15600
C912        C  0.29982616  0.22686766  0.51781630    -0.01200
C913        C  0.27896741  0.24337313  0.51209710    -0.08800
C914        C  0.19619112  0.20017831  0.54630695     0.65500
H915        H  0.23865723  0.16967222  0.54978285     0.11000
C916        C  0.33591637  0.23832741  0.50785116     0.63900
H917        H  0.28832612  0.26182634  0.50031050     0.08300
F918        F  0.12574820  0.23056258  0.52794278    -0.19100
F919        F  0.11727502  0.22043389  0.49710200    -0.15400
F920        F  0.11959888  0.26962457  0.51005420    -0.18800
F921        F  0.31536749  0.33105626  0.50368223    -0.22200
F922        F  0.30239284  0.30494045  0.53232693    -0.23700
F923        F  0.29690359  0.35365086  0.52721203    -0.17700
F924        F  0.34744458  0.26956656  0.49745136    -0.20200
F925        F  0.33120368  0.21143330  0.49564533    -0.21300
F926        F  0.36305469  0.24523652  0.52081888    -0.18500
F927        F  0.19687385  0.18664313  0.56388220    -0.18600
F928        F  0.16678087  0.17364059  0.53659196    -0.22400
F929        F  0.19032690  0.22911707  0.54894358    -0.24100
C930        C  0.22393731  0.45976757  0.51917205    -0.10900
C931        C  0.21632880  0.48418703  0.50954916     0.11700
C932        C  0.19186411  0.47185368  0.49420170    -0.02700
C933        C  0.17564488  0.43530236  0.48917068    -0.05400
C934        C  0.18655735  0.41157602  0.49723918    -0.16200
C935        C  0.21028009  0.42392901  0.51310049     0.02700
C936        C  0.23689936  0.01879058  0.51461391     0.12700
C937        C  0.18782802  0.99333787  0.48067897     0.63300
H938        H  0.15655183  0.42576128  0.47764022     0.12700
C939        C  0.22347367  0.40076130  0.52293953     0.55400
H940        H  0.24260248  0.46983160  0.53095405     0.08500
C941        C  0.22137111  0.03307968  0.52743241    -0.05300
C942        C  0.24267348  0.06928356  0.53284349    -0.06000
C943        C  0.28015561  0.09063097  0.52763456    -0.15600
C944        C  0.29464422  0.07729248  0.51351739    -0.01200
C945        C  0.27278414  0.04128326  0.50751220    -0.08800
C946        C  0.18519819  0.52105950  0.53616506     0.65500
H947        H  0.23051406  0.08096153  0.54189397     0.11000
C948        C  0.33184874  0.10080928  0.50403057     0.63900
H949        H  0.28363246  0.03011447  0.49725680     0.08300
F950        F  0.24829932  0.41901389  0.53709790    -0.19100
F951        F  0.24119463  0.39016514  0.51015799    -0.15400
F952        F  0.19383727  0.37108421  0.53093696    -0.18800
F953        F  0.22150510  0.01446424  0.47186774    -0.22200
F954        F  0.17775036  0.01547004  0.49009682    -0.23700
F955        F  0.16128870  0.48064082  0.46768060    -0.17700
F956        F  0.34171240  0.08118448  0.49218359    -0.20200
F957        F  0.35967539  0.11708276  0.51698437    -0.21300
F958        F  0.32975269  0.12691739  0.49340019    -0.18500
F959        F  0.17528980  0.02797379  0.54985859    -0.18600
F960        F  0.16407733  0.48565674  0.53083406    -0.22400
F961        F  0.16676900  0.53948050  0.53100308    -0.24100
C962        C  0.46938273  0.21564977  0.52639287    -0.10900
C963        C  0.47231989  0.23754558  0.51116656     0.11700
C964        C  0.43942236  0.23388083  0.50320999    -0.02700
C965        C  0.40518903  0.21147099  0.51226955    -0.05400
C966        C  0.40231797  0.19340075  0.52924271    -0.16200
C967        C  0.43489779  0.19179358  0.53459391     0.02700
C968        C  0.01260268  0.26110635  0.50583012     0.12700
C969        C  0.44052487  0.25309429  0.48507258     0.63300
H970        H  0.38041115  0.20727825  0.50572714     0.12700
C971        C  0.43491480  0.16207508  0.54610092     0.55400
H972        H  0.49417458  0.21532184  0.53109131     0.08500
C973        C  0.03941889  0.29557704  0.51206827    -0.05300
C974        C  0.07458736  0.31305408  0.50325041    -0.06000
C975        C  0.08481015  0.29644768  0.48921233    -0.15600
C976        C  0.05842980  0.26052972  0.48399053    -0.01200
C977        C  0.02250890  0.24444183  0.49183750    -0.08800
C978        C  0.03116636  0.31347881  0.52825696     0.65500
H979        H  0.09465972  0.34000296  0.50741216     0.11000
C980        C  0.06642044  0.23672604  0.47119246     0.63900
H981        H  0.00219139  0.21756059  0.48759716     0.08300
F982        F  0.45775999  0.17622956  0.56133393    -0.19100
F983        F  0.44817855  0.14386246  0.53527602    -0.15400
F984        F  0.40023502  0.13768927  0.55211229    -0.18800
F985        F  0.45390785  0.24072788  0.47077745    -0.22200
F986        F  0.46344473  0.28967290  0.48697985    -0.23700
F987        F  0.40576484  0.24737476  0.48003387    -0.17700
F988        F  0.05273092  0.20293629  0.47920736    -0.20200
F989        F  0.10370933  0.24978200  0.46810874    -0.21300
F990        F  0.04884464  0.23297312  0.45425970    -0.18500
F991        F  0.06086548  0.34691614  0.53216644    -0.18600
F992        F  0.02342199  0.29225873  0.54413304    -0.22400
F993        F  0.00107759  0.31797971  0.52403385    -0.24100
C994        C  0.32967699  0.66251276  0.56821486     0.46500
H995        H  0.32991588  0.66121443  0.58366421    -0.02500
C996        C  0.33034902  0.66619516  0.53187805     0.46500
H997        H  0.32973046  0.66670046  0.51644898    -0.02500
C998        C  0.36912242  0.68294526  0.56008510    -0.16200
C999        C  0.31108749  0.62501539  0.55870194    -0.16000
C1000       C  0.31022168  0.68319730  0.56082876    -0.16400
C1001       C  0.37071361  0.68357241  0.54066400    -0.16300
C1002       C  0.30995800  0.62691748  0.53947988    -0.15900
C1003       C  0.30958307  0.68471336  0.54142027    -0.16200
C1004       C  0.15577938  0.83346880  0.49286798     0.46500
H1005       H  0.14714763  0.83040624  0.50777639    -0.02500
C1006       C  0.17515122  0.84102591  0.45779916     0.46500
H1007       H  0.18364524  0.84518739  0.44303520    -0.02500
C1008       C  0.18093457  0.81660931  0.48811949    -0.16200
C1009       C  0.12238707  0.81412435  0.47917839    -0.16000
C1010       C  0.17718022  0.87376428  0.48605429    -0.16400
C1011       C  0.19200402  0.82201496  0.46955068    -0.16300
C1012       C  0.13298650  0.81850150  0.46050403    -0.15900
C1013       C  0.18646540  0.87693632  0.46735745    -0.16200
Zn1014     Zn  0.21542410  0.86265068  0.67200091     1.49700
Zn1015     Zn  0.15953003  0.82892233  0.70581078     1.49400
Zn1016     Zn  0.13379707  0.85348969  0.66952622     1.49100
Zn1017     Zn  0.14366671  0.78324672  0.66785484     1.49500
O1018       O  0.16309265  0.83168830  0.67862142    -1.83100
O1019       O  0.24870569  0.87972004  0.69475713    -0.73700
O1020       O  0.12688721  0.84761566  0.71537993    -0.73600
O1021       O  0.16507229  0.89888766  0.65524716    -0.73100
O1022       O  0.20908148  0.85531851  0.71841837    -0.73800
O1023       O  0.22193117  0.90573891  0.65734710    -0.73300
O1024       O  0.10756559  0.86408868  0.69016111    -0.65200
O1025       O  0.09955945  0.77139297  0.65076837    -0.73300
O1026       O  0.13553458  0.77838071  0.71457531    -0.74100
O1027       O  0.09427588  0.82063416  0.65224196    -0.73500
O1028       O  0.12410518  0.74500597  0.68902707    -0.73900
O1029       O  0.18447209  0.78216364  0.65158374    -0.73800
O1030       O  0.23325394  0.83673476  0.65492555    -0.73600
C1031       C  0.24198963  0.87413268  0.71224957     0.78200
C1032       C  0.10738940  0.85964921  0.70776577     0.78600
C1033       C  0.19952963  0.91602688  0.65152107     0.77600
C1034       C  0.08315254  0.78908232  0.64623386     0.78000
C1035       C  0.12235370  0.74794247  0.70678006     0.79100
C1036       C  0.21808163  0.80553671  0.64777443     0.78200
C1037       C  0.00419309  0.49688389  0.78892397     0.46500
H1038       H  0.00707601  0.49605388  0.77400376    -0.02500
C1039       C  0.00217540  0.49971377  0.82498833     0.46500
H1040       H  0.00075647  0.50083257  0.84027779    -0.02500
C1041       C  0.46793427  0.98581240  0.79597277    -0.16200
C1042       C  0.02249582  0.97578375  0.80094780    -0.16000
C1043       C  0.02670047  0.53528840  0.79589959    -0.16400
C1044       C  0.46525925  0.98439950  0.81558676    -0.16300
C1045       C  0.02036812  0.97635037  0.82016879    -0.15900
C1046       C  0.02751042  0.53736475  0.81518965    -0.16200
C1047       C  0.16353418  0.82564983  0.86551324     0.46500
H1048       H  0.16365314  0.82822934  0.85017988    -0.02500
C1049       C  0.16543536  0.82198622  0.90161563     0.46500
H1050       H  0.16425149  0.81789313  0.91670356    -0.02500
C1051       C  0.13493598  0.83438462  0.87595508    -0.16200
C1052       C  0.15344392  0.78726750  0.87257253    -0.16000
C1053       C  0.20308943  0.85129159  0.87390326    -0.16400
C1054       C  0.13689956  0.83256610  0.89510968    -0.16300
C1055       C  0.15613343  0.78644871  0.89181166    -0.15900
C1056       C  0.20269953  0.85135109  0.89351212    -0.16200
C1057       C  0.33883142  0.67097897  0.12437845     0.46500
H1058       H  0.33764190  0.67145098  0.10882659    -0.02500
C1059       C  0.34093568  0.66992961  0.16070922     0.46500
H1060       H  0.34166005  0.66923341  0.17599758    -0.02500
C1061       C  0.30119185  0.64725118  0.13332571    -0.16200
C1062       C  0.36369402  0.65660450  0.13175385    -0.16000
C1063       C  0.35321075  0.70805559  0.13292489    -0.16400
C1064       C  0.30108814  0.64726598  0.15260539    -0.16300
C1065       C  0.36422706  0.65429655  0.15111065    -0.15900
C1066       C  0.35595025  0.70868605  0.15220945    -0.16200
C1067       C  0.49929770  0.99707666  0.20061335     0.46500
H1068       H  0.50031537  0.99757299  0.18506508    -0.02500
C1069       C  0.49635451  0.99615369  0.23699456     0.46500
H1070       H  0.49602803  0.99654242  0.25247213    -0.02500
C1071       C  0.47545831  0.51010685  0.20990189    -0.16200
C1072       C  0.48763679  0.95935249  0.20923915    -0.16000
C1073       C  0.04092556  0.51877968  0.20599836    -0.16400
C1074       C  0.47579003  0.50982398  0.22927353    -0.16300
C1075       C  0.48521590  0.95903704  0.22856803    -0.15900
C1076       C  0.04080022  0.51644658  0.22526558    -0.16200
Zn1077     Zn  0.30644137  0.61915892  0.33952572     1.49700
Zn1078     Zn  0.34082667  0.67242068  0.37397191     1.49400
Zn1079     Zn  0.38165315  0.69577916  0.33520778     1.49100
Zn1080     Zn  0.30356566  0.69380281  0.34177130     1.49500
O1081       O  0.33286313  0.66991154  0.34730277    -1.83100
O1082       O  0.29242505  0.58540746  0.36270867    -0.73700
O1083       O  0.39362917  0.69836135  0.38051507    -0.73600
O1084       O  0.39056704  0.66225742  0.31899207    -0.73100
O1085       O  0.31972258  0.62459476  0.38552235    -0.73800
O1086       O  0.33952473  0.60920003  0.32178104    -0.73300
O1087       O  0.42426324  0.71835262  0.35377436    -0.73900
O1088       O  0.33069857  0.73490831  0.32365530    -0.73300
O1089       O  0.31787741  0.69718855  0.38721172    -0.74100
O1090       O  0.38315975  0.73409554  0.31827704    -0.73500
O1091       O  0.29063573  0.71250776  0.36523935    -0.73900
O1092       O  0.25763332  0.66047659  0.32769891    -0.73800
O1093       O  0.26046952  0.60997645  0.32447473    -0.73600
C1094       C  0.30053154  0.59256543  0.38001851     0.78200
C1095       C  0.42383403  0.71542748  0.37155035     0.78600
C1096       C  0.37194422  0.62909349  0.31496018     0.77600
C1097       C  0.36146058  0.74680238  0.31502168     0.78000
C1098       C  0.29909250  0.71200350  0.38236670     0.79100
C1099       C  0.24532483  0.62926944  0.32081120     0.78200
Zn1100     Zn  0.50635506  0.00018147  0.98376847     1.49700
Zn1101     Zn  0.02947039  0.54877286  0.02326386     1.49400
Zn1102     Zn  0.44844574  0.97223770  0.01775527     1.49100
Zn1103     Zn  0.02601236  0.97159187  0.02315666     1.49500
O1104       O  0.50119540  0.99725753  0.01078704    -1.83100
O1105       O  0.03808328  0.55310720  0.97738352    -0.73700
O1106       O  0.49512544  0.55876617  0.03658236    -0.73600
O1107       O  0.41635072  0.95681877  0.99435777    -0.73100
O1108       O  0.05302998  0.58661381  0.00288090    -0.73800
O1109       O  0.45769753  0.97719555  0.97111346    -0.73300
O1110       O  0.44107340  0.50824464  0.03609263    -0.73900
O1111       O  0.49021753  0.92961820  0.03646457    -0.73300
O1112       O  0.06931936  0.55598275  0.04154937    -0.74100
O1113       O  0.43629691  0.92909087  0.03469285    -0.73500
O1114       O  0.07166499  0.50500708  0.04057066    -0.73900
O1115       O  0.04592150  0.95233831  0.00280984    -0.73800
O1116       O  0.03076962  0.97128365  0.97703907    -0.73600
C1117       C  0.05386330  0.58368284  0.98518702     0.78200
C1118       C  0.46132301  0.54045076  0.04157593     0.78600
C1119       C  0.42441772  0.96098229  0.97691469     0.77600
C1120       C  0.45639497  0.91655779  0.04130729     0.78000
C1121       C  0.08299091  0.53644832  0.04692644     0.79100
C1122       C  0.04528568  0.95452515  0.98504424     0.78200
C1123       C  0.13350158  0.55256535  0.25137491    -0.10900
C1124       C  0.12787848  0.57155692  0.26578238     0.11700
C1125       C  0.09527114  0.57455103  0.26603313    -0.02700
C1126       C  0.06868863  0.55721541  0.25200046    -0.05400
C1127       C  0.07327584  0.53658776  0.23795985    -0.16200
C1128       C  0.10617873  0.53349082  0.23796754     0.02700
C1129       C  0.15608958  0.58638365  0.28083808     0.12700
C1130       C  0.08873228  0.59623167  0.28091291     0.63300
H1131       H  0.04369983  0.55951071  0.25193609     0.12700
C1132       C  0.11721389  0.02262688  0.22872970     0.55400
H1133       H  0.15871237  0.55057376  0.25140197     0.08500
C1134       C  0.15726159  0.56446030  0.29552359    -0.05300
C1135       C  0.18630255  0.57967579  0.30859076    -0.06000
C1136       C  0.21387616  0.61590088  0.30744450    -0.15600
C1137       C  0.21244434  0.63787257  0.29270909    -0.01200
C1138       C  0.18340891  0.62252487  0.27966568    -0.08800
C1139       C  0.12815403  0.52504094  0.29723033     0.65500
H1140       H  0.18795477  0.56322411  0.31974805     0.11000
C1141       C  0.24209299  0.67697673  0.29017724     0.63900
H1142       H  0.18201784  0.63850891  0.26818126     0.08300
F1143       F  0.12515669  0.99954685  0.23895071    -0.19100
F1144       F  0.14922129  0.04762843  0.21972437    -0.15400
F1145       F  0.09188461  0.00275829  0.21553902    -0.18800
F1146       F  0.05332554  0.59196329  0.27995224    -0.22200
F1147       F  0.11390247  0.63226450  0.27845252    -0.23700
F1148       F  0.09310053  0.58553691  0.29859108    -0.17700
F1149       F  0.27687510  0.67971036  0.28976631    -0.20200
F1150       F  0.24008289  0.69721179  0.30475524    -0.21300
F1151       F  0.23778053  0.69156824  0.27362974    -0.18500
F1152       F  0.13292326  0.50929254  0.31321756    -0.18600
F1153       F  0.13033156  0.50637435  0.28194194    -0.22400
F1154       F  0.09312822  0.52161120  0.29802500    -0.24100
C1155       C  0.37648269  0.82888882  0.28624433    -0.10900
C1156       C  0.40094120  0.82923521  0.27249145     0.11700
C1157       C  0.41003534  0.80126651  0.27193313    -0.02700
C1158       C  0.39544411  0.77461140  0.28582328    -0.05400
C1159       C  0.37228065  0.77486752  0.30023903    -0.16200
C1160       C  0.36149332  0.80190609  0.30014710     0.02700
C1161       C  0.42118962  0.86218788  0.26113633     0.12700
C1162       C  0.43557366  0.79838156  0.25746852     0.63300
H1163       H  0.40286563  0.75345176  0.28549482     0.12700
C1164       C  0.33564378  0.80348071  0.31485584     0.55400
H1165       H  0.37036854  0.85089320  0.28636424     0.08500
C1166       C  0.40706769  0.86825280  0.24442060    -0.05300
C1167       C  0.42928701  0.89987140  0.23424022    -0.06000
C1168       C  0.46516644  0.92530982  0.24006925    -0.15600
C1169       C  0.47875991  0.91893218  0.25719164    -0.01200
C1170       C  0.45610063  0.88765868  0.26745770    -0.08800
C1171       C  0.36868014  0.84163840  0.23754780     0.65500
H1172       H  0.41794442  0.90558343  0.22193247     0.11000
C1173       C  0.51659653  0.94286625  0.26549005     0.63900
H1174       H  0.46615643  0.88249670  0.28049646     0.08300
F1175       F  0.33165766  0.83375884  0.31277264    -0.19100
F1176       F  0.34951549  0.80435046  0.33255353    -0.15400
F1177       F  0.30084439  0.77375021  0.31331699    -0.18800
F1178       F  0.46586560  0.79982047  0.26646309    -0.22200
F1179       F  0.44837800  0.82516272  0.24397024    -0.23700
F1180       F  0.41668045  0.76572243  0.24845756    -0.17700
F1181       F  0.53350643  0.92255085  0.26972853    -0.20200
F1182       F  0.51255387  0.95807783  0.28178403    -0.21300
F1183       F  0.53983802  0.96972659  0.25357875    -0.18500
F1184       F  0.36061140  0.85233581  0.22066733    -0.18600
F1185       F  0.34240474  0.83850626  0.25058124    -0.22400
F1186       F  0.36623442  0.80839269  0.23504730    -0.24100
C1187       C  0.42202794  0.53016586  0.26734239    -0.10900
C1188       C  0.43154664  0.56561779  0.26288599     0.11700
C1189       C  0.45638265  0.58324922  0.24787278    -0.02700
C1190       C  0.47015310  0.56409288  0.23752295    -0.05400
C1191       C  0.45983969  0.52793985  0.24151132    -0.16200
C1192       C  0.43535780  0.51073493  0.25696397     0.02700
C1193       C  0.41647033  0.58372205  0.27517151     0.12700
C1194       C  0.46874435  0.62224972  0.24300855     0.63300
H1195       H  0.98843301  0.57298393  0.22373417     0.12700
C1196       C  0.42214462  0.47200051  0.26269743     0.55400
H1197       H  0.40397571  0.51781841  0.27932801     0.08500
C1198       C  0.37976846  0.57786014  0.27337895    -0.05300
C1199       C  0.36627325  0.59309082  0.28669720    -0.06000
C1200       C  0.38815582  0.61365645  0.30167277    -0.15600
C1201       C  0.42475573  0.61911046  0.30356748    -0.01200
C1202       C  0.43820347  0.60392219  0.29022800    -0.08800
C1203       C  0.35479215  0.55513098  0.25765299     0.65500
H1204       H  0.33837216  0.58906653  0.28551697     0.11000
C1205       C  0.44906393  0.63961137  0.31998412     0.63900
H1206       H  0.46580342  0.60722975  0.29157710     0.08300
F1207       F  0.41159194  0.45033651  0.24720424    -0.19100
F1208       F  0.38217085  0.95279128  0.27171026    -0.15400
F1209       F  0.44985870  0.46928822  0.27202372    -0.18800
F1210       F  0.48803637  0.64395958  0.25783775    -0.22200
F1211       F  0.43830929  0.62655051  0.23934474    -0.23700
F1212       F  0.98758209  0.62779219  0.22485128    -0.17700
F1213       F  0.42986244  0.62608796  0.33663147    -0.20200
F1214       F  0.45948043  0.67565637  0.31839517    -0.21300
F1215       F  0.48101910  0.63674842  0.32070645    -0.18500
F1216       F  0.32097331  0.55453131  0.25787527    -0.18600
F1217       F  0.34809377  0.52016215  0.25945360    -0.22400
F1218       F  0.37151147  0.56871920  0.24050091    -0.24100
C1219       C  0.44305220  0.85773182  0.08429431    -0.10900
C1220       C  0.40768467  0.82884657  0.08113435     0.11700
C1221       C  0.38731293  0.82939284  0.06533833    -0.02700
C1222       C  0.40396834  0.85876586  0.05277863    -0.05400
C1223       C  0.44042508  0.88675255  0.05530974    -0.16200
C1224       C  0.46035535  0.88633335  0.07144454     0.02700
C1225       C  0.39370725  0.79781941  0.09432107     0.12700
C1226       C  0.34845186  0.79889896  0.06166681     0.63300
H1227       H  0.38890257  0.85969911  0.04060656     0.12700
C1228       C  0.49971779  0.91573675  0.07528589     0.55400
H1229       H  0.45760719  0.85688524  0.09670732     0.08500
C1230       C  0.40695469  0.77280475  0.09368757    -0.05300
C1231       C  0.39323950  0.74453886  0.10681857    -0.06000
C1232       C  0.36612290  0.73985112  0.12014021    -0.15600
C1233       C  0.35189554  0.76424767  0.12027395    -0.01200
C1234       C  0.36737937  0.79384652  0.10790788    -0.08800
C1235       C  0.43524632  0.77572942  0.07911853     0.65500
H1236       H  0.40373206  0.72567225  0.10681995     0.11000
C1237       C  0.31971253  0.75955821  0.13245889     0.63900
H1238       H  0.35794858  0.81353771  0.10841098     0.08300
F1239       F  0.51155435  0.91224826  0.09290087    -0.19100
F1240       F  0.50168410  0.94903062  0.07429285    -0.15400
F1241       F  0.52373139  0.91405656  0.06228898    -0.18800
F1242       F  0.32479894  0.79698487  0.07591714    -0.22200
F1243       F  0.34877198  0.76663954  0.06076787    -0.23700
F1244       F  0.33448869  0.80370011  0.04495656    -0.17700
F1245       F  0.33298265  0.78123039  0.14798668    -0.20200
F1246       F  0.29799544  0.72444175  0.13813177    -0.21300
F1247       F  0.29711848  0.76928244  0.12260270    -0.18500
F1248       F  0.44201476  0.74697203  0.08011767    -0.18600
F1249       F  0.46848325  0.80679292  0.08182677    -0.22400
F1250       F  0.42238584  0.77640552  0.06135992    -0.24100
C1251       C  0.13870889  0.57500131  0.09113768    -0.10900
C1252       C  0.17328075  0.57969016  0.08544701     0.11700
C1253       C  0.17765256  0.56814510  0.06751231    -0.02700
C1254       C  0.14717509  0.55364680  0.05538426    -0.05400
C1255       C  0.11311127  0.55072768  0.06070007    -0.16200
C1256       C  0.10833379  0.56083005  0.07894015     0.02700
C1257       C  0.20474622  0.59731497  0.09845177     0.12700
C1258       C  0.21435011  0.57128501  0.06124232     0.63300
H1259       H  0.14983650  0.54500979  0.04149093     0.12700
C1260       C  0.07124786  0.55613854  0.08555464     0.55400
H1261       H  0.13602198  0.58332732  0.10510291     0.08500
C1262       C  0.22645733  0.63512669  0.09928725    -0.05300
C1263       C  0.25817006  0.64998099  0.11052714    -0.06000
C1264       C  0.26792127  0.62831545  0.12132194    -0.15600
C1265       C  0.24583706  0.59031470  0.12052304    -0.01200
C1266       C  0.21386116  0.57558150  0.10948104    -0.08800
C1267       C  0.21584801  0.65958318  0.08855124     0.65500
H1268       H  0.27541891  0.67885623  0.11122927     0.11000
C1269       C  0.25522876  0.56398767  0.13009305     0.63900
H1270       H  0.19662447  0.54662570  0.10876870     0.08300
F1271       F  0.06267471  0.57901514  0.07562406    -0.19100
F1272       F  0.07157585  0.56367828  0.10441490    -0.15400
F1273       F  0.04385340  0.52105685  0.08280249    -0.18800
F1274       F  0.22341270  0.55065090  0.07279936    -0.22200
F1275       F  0.24214492  0.60668619  0.06203152    -0.23700
F1276       F  0.21281042  0.55952926  0.04305907    -0.17700
F1277       F  0.23043635  0.54692373  0.14460548    -0.20200
F1278       F  0.29067606  0.58022837  0.13700509    -0.21300
F1279       F  0.25251215  0.53837999  0.11739252    -0.18500
F1280       F  0.24091105  0.69553431  0.09132865    -0.18600
F1281       F  0.18137063  0.65353384  0.09449376    -0.22400
F1282       F  0.21462921  0.65283271  0.06958482    -0.24100
C1283       C  0.41308589  0.55889073  0.08224951    -0.10900
C1284       C  0.42226712  0.59458269  0.07842314     0.11700
C1285       C  0.44418315  0.61246371  0.06251847    -0.02700
C1286       C  0.45548162  0.59339404  0.05058130    -0.05400
C1287       C  0.44594529  0.55745530  0.05421880    -0.16200
C1288       C  0.42505796  0.54001288  0.07054786     0.02700
C1289       C  0.40749650  0.61202245  0.09116287     0.12700
C1290       C  0.45528870  0.65135409  0.05814541     0.63300
H1291       H  0.47213481  0.60652888  0.03827970     0.12700
C1292       C  0.40842811  0.99613695  0.07220699     0.55400
H1293       H  0.39654820  0.54603266  0.09462402     0.08500
C1294       C  0.36986896  0.60365645  0.09085356    -0.05300
C1295       C  0.35704635  0.61805266  0.10476742    -0.06000
C1296       C  0.38091908  0.64276845  0.11798181    -0.15600
C1297       C  0.41921641  0.65328855  0.11731156    -0.01200
C1298       C  0.43129327  0.63594455  0.10461874    -0.08800
C1299       C  0.34198464  0.57946549  0.07644475     0.65500
H1300       H  0.32782907  0.61016611  0.10511930     0.11000
C1301       C  0.44871480  0.68328460  0.12885391     0.63900
H1302       H  0.46003687  0.64207646  0.10479066     0.08300
F1303       F  0.38466098  0.97320533  0.05883464    -0.19100
F1304       F  0.39125615  0.98481560  0.08950675    -0.15400
F1305       F  0.44056357  0.99357563  0.07243474    -0.18800
F1306       F  0.47746904  0.67327309  0.07225660    -0.22200
F1307       F  0.42398360  0.65513292  0.05668746    -0.23700
F1308       F  0.47498291  0.66297211  0.04148156    -0.17700
F1309       F  0.46250092  0.66885582  0.14189276    -0.20200
F1310       F  0.43583175  0.70351139  0.13800031    -0.21300
F1311       F  0.47742076  0.70637608  0.11718750    -0.18500
F1312       F  0.32131352  0.59502249  0.07021631    -0.18600
F1313       F  0.31832335  0.54669174  0.08469855    -0.22400
F1314       F  0.35840434  0.57369478  0.06090950    -0.24100
C1315       C  0.41676760  0.62254781  0.18452519    -0.10900
C1316       C  0.41117035  0.59103647  0.17558352     0.11700
C1317       C  0.38862676  0.57944625  0.15949919    -0.02700
C1318       C  0.37224718  0.59969594  0.15309495    -0.05400
C1319       C  0.37972329  0.63283754  0.16104598    -0.16200
C1320       C  0.40249318  0.64435384  0.17730193     0.02700
C1321       C  0.42824281  0.57000826  0.18361859     0.12700
C1322       C  0.38245033  0.54617142  0.14881572     0.63300
H1323       H  0.35356302  0.58961885  0.14142856     0.12700
C1324       C  0.41228593  0.67905360  0.18741188     0.55400
H1325       H  0.43296180  0.63025217  0.19724085     0.08500
C1326       C  0.46615688  0.58017025  0.18091938    -0.05300
C1327       C  0.47982603  0.55823567  0.18849804    -0.06000
C1328       C  0.45699272  0.52685001  0.19879174    -0.15600
C1329       C  0.41862070  0.51574728  0.20048563    -0.01200
C1330       C  0.40535160  0.53831831  0.19358305    -0.08800
C1331       C  0.49220075  0.61438587  0.17039756     0.65500
H1332       H  0.50898076  0.56636391  0.18718309     0.11000
C1333       C  0.39027083  0.47996952  0.20878795     0.63900
H1334       H  0.37632519  0.53050380  0.19549342     0.08300
F1335       F  0.41844490  0.70618964  0.17490815    -0.19100
F1336       F  0.44435366  0.69061654  0.19775092    -0.15400
F1337       F  0.38391930  0.67355105  0.19960630    -0.18800
F1338       F  0.36235137  0.54153590  0.13261044    -0.22200
F1339       F  0.36316976  0.51584824  0.15985473    -0.23700
F1340       F  0.41619733  0.54918072  0.14374374    -0.17700
F1341       F  0.37699579  0.48560385  0.22551965    -0.20200
F1342       F  0.40454756  0.45710010  0.21178251    -0.21300
F1343       F  0.36093198  0.46302483  0.19656106    -0.18500
F1344       F  0.52746064  0.61849966  0.16865761    -0.18600
F1345       F  0.49502985  0.64383764  0.17985432    -0.22400
F1346       F  0.47884515  0.61371958  0.15260997    -0.24100
C1347       C  0.21435150  0.58653374  0.18214956    -0.10900
C1348       C  0.18890795  0.59586515  0.17431880     0.11700
C1349       C  0.20201879  0.62522494  0.16168483    -0.02700
C1350       C  0.23981499  0.64344870  0.15699211    -0.05400
C1351       C  0.26490744  0.63234329  0.16329373    -0.16200
C1352       C  0.25236090  0.60428848  0.17687915     0.02700
C1353       C  0.14922492  0.57630623  0.18052503     0.12700
C1354       C  0.17611182  0.63659096  0.15249703     0.63300
H1355       H  0.24982208  0.66574324  0.14731738     0.12700
C1356       C  0.27846369  0.59335133  0.18609550     0.55400
H1357       H  0.20407842  0.56507509  0.19245425     0.08500
C1358       C  0.12330267  0.54175453  0.17386391    -0.05300
C1359       C  0.08666931  0.52488146  0.18113985    -0.06000
C1360       C  0.07540451  0.54160448  0.19465160    -0.15600
C1361       C  0.09992427  0.57816973  0.19886358    -0.01200
C1362       C  0.13695151  0.59392083  0.19278948    -0.08800
C1363       C  0.13453758  0.52253302  0.15954874     0.65500
H1364       H  0.06718711  0.49773308  0.17710564     0.11000
C1365       C  0.08804421  0.60267262  0.20834080     0.63900
H1366       H  0.15635068  0.62095490  0.19722996     0.08300
F1367       F  0.29724431  0.58494348  0.17280082    -0.19100
F1368       F  0.25964905  0.56360394  0.19765398    -0.15400
F1369       F  0.30368622  0.62121622  0.19694034    -0.18800
F1370       F  0.16135411  0.64958827  0.16577243    -0.22200
F1371       F  0.14763460  0.60757167  0.14363129    -0.23700
F1372       F  0.19426565  0.66341451  0.13921284    -0.17700
F1373       F  0.10832048  0.61660450  0.22446579    -0.20200
F1374       F  0.05080313  0.58554442  0.21278369    -0.21300
F1375       F  0.09495315  0.63081011  0.19628528    -0.18500
F1376       F  0.14980125  0.54412902  0.14390338    -0.18600
F1377       F  0.10451355  0.49069589  0.15380058    -0.22400
F1378       F  0.16038446  0.51459659  0.16722500    -0.24100
C1379       C  0.38330377  0.79080941  0.18441435    -0.10900
C1380       C  0.41622009  0.81650693  0.17562351     0.11700
C1381       C  0.43101039  0.80535786  0.16076468    -0.02700
C1382       C  0.41191313  0.76919906  0.15505578    -0.05400
C1383       C  0.37719695  0.74395564  0.16261472    -0.16200
C1384       C  0.36307663  0.75481368  0.17806241     0.02700
C1385       C  0.43555375  0.85444883  0.18280202     0.12700
C1386       C  0.46644559  0.83165457  0.15057977     0.63300
H1387       H  0.42366326  0.76048500  0.14402001     0.12700
C1388       C  0.32659109  0.72949879  0.18763965     0.55400
H1389       H  0.37326304  0.79948008  0.19624621     0.08500
C1390       C  0.42337573  0.87972634  0.17887832    -0.05300
C1391       C  0.44305632  0.91476438  0.18644575    -0.06000
C1392       C  0.47438377  0.92537122  0.19781345    -0.15600
C1393       C  0.48848291  0.90096212  0.20006506    -0.01200
C1394       C  0.46775464  0.86555129  0.19334080    -0.08800
C1395       C  0.38944539  0.86957157  0.16694667     0.65500
H1396       H  0.43300292  0.93365828  0.18427379     0.11000
C1397       C  0.52684425  0.91274647  0.20773536     0.63900
H1398       H  0.47704332  0.84615303  0.19591321     0.08300
F1399       F  0.31583973  0.74734457  0.20024478    -0.19100
F1400       F  0.33001531  0.70333350  0.19746541    -0.15400
F1401       F  0.29882970  0.71358645  0.17458726    -0.18800
F1402       F  0.49640459  0.84263170  0.16237578    -0.22200
F1403       F  0.46397000  0.86135418  0.14466183    -0.23700
F1404       F  0.47300906  0.81640741  0.13494248    -0.17700
F1405       F  0.52956903  0.92392257  0.22594975    -0.20200
F1406       F  0.04185511  0.94361320  0.20969536    -0.21300
F1407       F  0.03706978  0.89476998  0.19628897    -0.18500
F1408       F  0.38340468  0.89844755  0.16400980    -0.18600
F1409       F  0.35838230  0.84259987  0.17571150    -0.22400
F1410       F  0.39399669  0.85763651  0.14967698    -0.24100
C1411       C  0.27181100  0.88357749  0.93397444    -0.10900
C1412       C  0.30328712  0.91094874  0.92539235     0.11700
C1413       C  0.30047427  0.92377935  0.90758194    -0.02700
C1414       C  0.26630867  0.90602821  0.89821338    -0.05400
C1415       C  0.23514055  0.87599139  0.90609063    -0.16200
C1416       C  0.23691282  0.87015411  0.92578738     0.02700
C1417       C  0.33701170  0.92836677  0.93690927     0.12700
C1418       C  0.33331587  0.95589809  0.89865808     0.63300
H1419       H  0.26380951  0.91630905  0.88485374     0.12700
C1420       C  0.20617969  0.86316690  0.93981511     0.55400
H1421       H  0.27377117  0.87665271  0.94841983     0.08500
C1422       C  0.34096423  0.95240161  0.95154403    -0.05300
C1423       C  0.36968350  0.96181062  0.96440490    -0.06000
C1424       C  0.39462279  0.94856907  0.96297423    -0.15600
C1425       C  0.39139435  0.92533352  0.94807524    -0.01200
C1426       C  0.36226064  0.91544578  0.93528975    -0.08800
C1427       C  0.31590551  0.96881323  0.95453407     0.65500
H1428       H  0.37286245  0.98005165  0.97568636     0.11000
C1429       C  0.41740791  0.90975707  0.94616098     0.63900
H1430       H  0.35818490  0.89660646  0.92421110     0.08300
F1431       F  0.18106932  0.87198891  0.93227009    -0.19100
F1432       F  0.22031943  0.88468487  0.95546936    -0.15400
F1433       F  0.18880957  0.82780477  0.94589558    -0.18800
F1434       F  0.36159536  0.94793451  0.89559775    -0.22200
F1435       F  0.34582821  0.98523383  0.91036094    -0.23700
F1436       F  0.32411424  0.96523821  0.88170741    -0.17700
F1437       F  0.40638001  0.88437914  0.93210377    -0.20200
F1438       F  0.41805595  0.89326868  0.96277764    -0.21300
F1439       F  0.45279990  0.93678727  0.94187431    -0.18500
F1440       F  0.33723704  0.00587716  0.95421429    -0.18600
F1441       F  0.29879872  0.95821285  0.97187538    -0.22400
F1442       F  0.28876811  0.95923166  0.94112737    -0.24100
C1443       C  0.08945316  0.67526298  0.96162426    -0.10900
C1444       C  0.10446588  0.66970118  0.94512078     0.11700
C1445       C  0.10660132  0.63775969  0.94294703    -0.02700
C1446       C  0.09134543  0.61143064  0.95697306    -0.05400
C1447       C  0.07395403  0.61569463  0.97294877    -0.16200
C1448       C  0.07387981  0.64862829  0.97569317     0.02700
C1449       C  0.11764759  0.69794793  0.93051847     0.12700
C1450       C  0.12383508  0.62935616  0.92619903     0.63300
H1451       H  0.09228982  0.58661673  0.95515853     0.12700
C1452       C  0.05641583  0.65529614  0.99289723     0.55400
H1453       H  0.08924745  0.70045382  0.96313527     0.08500
C1454       C  0.09360379  0.69921417  0.91689639    -0.05300
C1455       C  0.10848647  0.72603145  0.90293904    -0.06000
C1456       C  0.14568751  0.75339343  0.90338592    -0.15600
C1457       C  0.17004003  0.75052752  0.91649460    -0.01200
C1458       C  0.15536250  0.72293684  0.92992748    -0.08800
C1459       C  0.05217157  0.67369976  0.91787964     0.65500
H1460       H  0.09032205  0.72796330  0.89265295     0.11000
C1461       C  0.21174338  0.77375769  0.91646460     0.63900
H1462       H  0.17363214  0.72062269  0.94004519     0.08300
F1463       F  0.05742870  0.68823518  0.99200248    -0.19100
F1464       F  0.07543105  0.65503869  0.00873780    -0.15400
F1465       F  0.01970768  0.62888244  0.99449104    -0.18800
F1466       F  0.15319114  0.62498514  0.93222449    -0.22200
F1467       F  0.13689640  0.65572097  0.91253311    -0.23700
F1468       F  0.09765755  0.59766549  0.91813946    -0.17700
F1469       F  0.22339619  0.78994673  0.93369499    -0.20200
F1470       F  0.22425477  0.79994287  0.90294011    -0.21300
F1471       F  0.22779920  0.75237623  0.91315109    -0.18500
F1472       F  0.03378140  0.67855719  0.90293952    -0.18600
F1473       F  0.03795270  0.67971053  0.93420033    -0.22400
F1474       F  0.04517390  0.63849427  0.91777968    -0.24100
C1475       C  0.10789875  0.92286116  0.96233715    -0.10900
C1476       C  0.08621606  0.90430455  0.94691582     0.11700
C1477       C  0.05055755  0.90068095  0.94464807    -0.02700
C1478       C  0.03824218  0.91705705  0.95772630    -0.05400
C1479       C  0.06009658  0.93629593  0.97299930    -0.16200
C1480       C  0.09555401  0.93934045  0.97546552     0.02700
C1481       C  0.10058114  0.88707368  0.93386361     0.12700
C1482       C  0.02551236  0.87936687  0.92859206     0.63300
H1483       H  0.01114124  0.91487854  0.95615952     0.12700
C1484       C  0.12082417  0.96105136  0.99131076     0.55400
H1485       H  0.13474889  0.92448784  0.96389196     0.08500
C1486       C  0.12320639  0.90533272  0.91828144    -0.05300
C1487       C  0.13292556  0.88592332  0.90569456    -0.06000
C1488       C  0.12154148  0.84921560  0.90849213    -0.15600
C1489       C  0.10055183  0.83181894  0.92497583    -0.01200
C1490       C  0.09074495  0.85130782  0.93731070    -0.08800
C1491       C  0.13821587  0.94539976  0.91550177     0.65500
H1492       H  0.15074686  0.89968535  0.89383643     0.11000
C1493       C  0.08674798  0.79303550  0.93045347     0.63900
H1494       H  0.07433949  0.83815835  0.94971310     0.08300
F1495       F  0.15526179  0.96309478  0.99002504    -0.19100
F1496       F  0.10518036  0.94526866  0.00833730    -0.15400
F1497       F  0.12609240  0.99569266  0.99075764    -0.18800
F1498       F  0.01737626  0.84389908  0.92990854    -0.22200
F1499       F  0.04290358  0.89344590  0.91162756    -0.23700
F1500       F  0.99234789  0.88007893  0.92881933    -0.17700
F1501       F  0.10510738  0.79150430  0.94628297    -0.20200
F1502       F  0.09193065  0.77408145  0.91658707    -0.21300
F1503       F  0.04910384  0.77639272  0.93431473    -0.18500
F1504       F  0.15981702  0.95804100  0.89946206    -0.18600
F1505       F  0.15992504  0.96362928  0.93063148    -0.22400
F1506       F  0.10940086  0.95301448  0.91406611    -0.24100
C1507       C  0.06581019  0.93950423  0.85463294    -0.10900
C1508       C  0.05323223  0.90488531  0.84743234     0.11700
C1509       C  0.02387244  0.89148817  0.83436791    -0.02700
C1510       C  0.01114289  0.91470721  0.82749288    -0.05400
C1511       C  0.02728940  0.95115267  0.83271430    -0.16200
C1512       C  0.05306781  0.96283052  0.84777482     0.02700
C1513       C  0.07245088  0.88415078  0.85337789     0.12700
C1514       C  0.00649327  0.85305059  0.82743058     0.63300
H1515       H  0.98918136  0.90484202  0.81727047     0.12700
C1516       C  0.06743685  0.50147139  0.85423849     0.55400
H1517       H  0.08665343  0.94844236  0.86545792     0.08500
C1518       C  0.10731294  0.89167922  0.84584790    -0.05300
C1519       C  0.12538609  0.87337741  0.85288098    -0.06000
C1520       C  0.10980305  0.84670936  0.86666991    -0.15600
C1521       C  0.07245664  0.83588063  0.87239956    -0.01200
C1522       C  0.05562690  0.85628179  0.86655858    -0.08800
C1523       C  0.12502142  0.91849912  0.83008954     0.65500
H1524       H  0.15240856  0.88048131  0.84789681     0.11000
C1525       C  0.04760035  0.80190427  0.88334033     0.63900
H1526       H  0.02838909  0.84952204  0.87192234     0.08300
F1527       F  0.09616852  0.50992902  0.86663208    -0.19100
F1528       F  0.03907031  0.50237941  0.86409115    -0.15400
F1529       F  0.08045178  0.52754416  0.84045524    -0.18800
F1530       F  0.98932618  0.82952379  0.84218622    -0.22200
F1531       F  0.03336114  0.84640166  0.81980662    -0.23700
F1532       F  0.48945370  0.84876494  0.80793837    -0.17700
F1533       F  0.03749725  0.81066818  0.90016087    -0.20200
F1534       F  0.06385701  0.78091577  0.88671098    -0.21300
F1535       F  0.01576033  0.78141837  0.87316424    -0.18500
F1536       F  0.15791709  0.92074053  0.82394823    -0.18600
F1537       F  0.13256158  0.95220112  0.83602106    -0.22400
F1538       F  0.10082319  0.90777334  0.81518546    -0.24100
C1539       C  0.09681976  0.70460548  0.84099299    -0.10900
C1540       C  0.10885507  0.68115715  0.84765358     0.11700
C1541       C  0.13986904  0.69469693  0.85964142    -0.02700
C1542       C  0.15618260  0.73088815  0.86544319    -0.05400
C1543       C  0.14132547  0.75357979  0.86072008    -0.16200
C1544       C  0.11211775  0.74047063  0.84722428     0.02700
C1545       C  0.08901974  0.64298851  0.84107883     0.12700
C1546       C  0.15503858  0.67074046  0.86668353     0.63300
H1547       H  0.17990473  0.74132920  0.87462326     0.12700
C1548       C  0.09608388  0.76294742  0.83923754     0.55400
H1549       H  0.07443809  0.69398088  0.83096915     0.08500
C1550       C  0.05366741  0.61724435  0.84800960    -0.05300
C1551       C  0.03544362  0.58274074  0.83984282    -0.06000
C1552       C  0.05137243  0.57254631  0.82533704    -0.15600
C1553       C  0.08882226  0.59752515  0.82010600    -0.01200
C1554       C  0.10576723  0.63266720  0.82721454    -0.08800
C1555       C  0.03538868  0.62616329  0.86404468     0.65500
H1556       H  0.51067851  0.56841427  0.84256038     0.11000
C1557       C  0.11381743  0.58879480  0.80827290     0.63900
H1558       H  0.13313080  0.65218507  0.82218493     0.08300
F1559       F  0.06609341  0.74327987  0.82770724    -0.19100
F1560       F  0.12252123  0.79089473  0.82862262    -0.15400
F1561       F  0.08373519  0.77591179  0.85348704    -0.18800
F1562       F  0.17024477  0.66127550  0.85196054    -0.22200
F1563       F  0.12688115  0.63987004  0.87475437    -0.23700
F1564       F  0.18234319  0.68780236  0.87996307    -0.17700
F1565       F  0.12455111  0.60992646  0.79228449    -0.20200
F1566       F  0.09737545  0.55343937  0.80323692    -0.21300
F1567       F  0.14517111  0.59605920  0.81840201    -0.18500
F1568       F  0.50408535  0.60312644  0.86645572    -0.18600
F1569       F  0.02771486  0.65303874  0.85868180    -0.22400
F1570       F  0.05893235  0.63766009  0.87920953    -0.24100
C1571       C  0.37629030  0.95211286  0.84627253    -0.10900
C1572       C  0.35377653  0.91681424  0.84007434     0.11700
C1573       C  0.36920820  0.90312305  0.82659993    -0.02700
C1574       C  0.40648981  0.92489749  0.82047415    -0.05400
C1575       C  0.42861228  0.96095395  0.82610625    -0.16200
C1576       C  0.41285794  0.97442792  0.83951301     0.02700
C1577       C  0.31422827  0.89678910  0.84758640     0.12700
C1578       C  0.34775804  0.86641361  0.81767732     0.63300
H1579       H  0.41781351  0.91420091  0.81016614     0.12700
C1580       C  0.43486363  0.51552280  0.84631561     0.55400
H1581       H  0.36450230  0.96245977  0.85641811     0.08500
C1582       C  0.30059536  0.86721065  0.86031732    -0.05300
C1583       C  0.26332157  0.85128843  0.86672794    -0.06000
C1584       C  0.23933001  0.86512171  0.86246588    -0.15600
C1585       C  0.25317404  0.89473023  0.84968344    -0.01200
C1586       C  0.28990006  0.90963619  0.84250247    -0.08800
C1587       C  0.32395480  0.85181358  0.86829380     0.65500
H1588       H  0.25342367  0.82838611  0.87591352     0.11000
C1589       C  0.22961728  0.91084029  0.84345574     0.63900
H1590       H  0.30025431  0.93214622  0.83287340     0.08300
F1591       F  0.41148820  0.02194120  0.85690486    -0.19100
F1592       F  0.44879446  0.53867694  0.83113212    -0.15400
F1593       F  0.46309937  0.51918121  0.85793155    -0.18800
F1594       F  0.31095117  0.84801688  0.82307223    -0.22200
F1595       F  0.36412270  0.84587514  0.82242179    -0.23700
F1596       F  0.34900488  0.87043773  0.79840734    -0.17700
F1597       F  0.24992326  0.94278258  0.83367499    -0.20200
F1598       F  0.21388748  0.91799926  0.85884609    -0.21300
F1599       F  0.20269440  0.88678038  0.83164147    -0.18500
F1600       F  0.32312990  0.85302490  0.88764467    -0.18600
F1601       F  0.36059934  0.87017341  0.86263658    -0.22400
F1602       F  0.30915321  0.81636093  0.86287419    -0.24100
C1603       C  0.40101495  0.94576030  0.75401545    -0.10900
C1604       C  0.36796662  0.94095460  0.76180324     0.11700
C1605       C  0.36835548  0.95516770  0.77963600    -0.02700
C1606       C  0.40224737  0.97300884  0.78927555    -0.05400
C1607       C  0.43545298  0.97531600  0.78230915    -0.16200
C1608       C  0.43529326  0.96671508  0.76276470     0.02700
C1609       C  0.33459690  0.92479181  0.74972607     0.12700
C1610       C  0.33290277  0.95021695  0.78874688     0.63300
H1611       H  0.40270252  0.98537878  0.80244562     0.12700
C1612       C  0.46276250  0.47913024  0.74941766     0.55400
H1613       H  0.40022257  0.93605036  0.73991777     0.08500
C1614       C  0.32970079  0.94466912  0.73506314    -0.05300
C1615       C  0.29885772  0.92705409  0.72328691    -0.06000
C1616       C  0.27310475  0.89052202  0.72564691    -0.15600
C1617       C  0.27819112  0.87057266  0.74021877    -0.01200
C1618       C  0.30900655  0.88825226  0.75207818    -0.08800
C1619       C  0.35721243  0.98414974  0.73159646     0.65500
H1620       H  0.29469314  0.94169408  0.71196456     0.11000
C1621       C  0.25225597  0.83051759  0.74273307     0.63900
H1622       H  0.31379726  0.87355154  0.76313899     0.08300
F1623       F  0.45033736  0.47513605  0.73111772    -0.19100
F1624       F  0.48875724  0.96933583  0.74800348    -0.15400
F1625       F  0.48571976  0.51566304  0.75169206    -0.18800
F1626       F  0.30975990  0.91412640  0.79249524    -0.22200
F1627       F  0.31495250  0.96252138  0.77698279    -0.23700
F1628       F  0.33981010  0.96877817  0.80540783    -0.17700
F1629       F  0.26505261  0.81564648  0.75610071    -0.20200
F1630       F  0.24914549  0.81305998  0.72599654    -0.21300
F1631       F  0.21763760  0.82446486  0.74840965    -0.18500
F1632       F  0.34474200  0.99918078  0.71815296    -0.18600
F1633       F  0.38741009  0.49063698  0.72772206    -0.22400
F1634       F  0.36298630  0.00343863  0.74791344    -0.24100
C1635       C  0.06892181  0.60104887  0.75391249    -0.10900
C1636       C  0.05982729  0.62749238  0.75855525     0.11700
C1637       C  0.03859308  0.62326039  0.77489299    -0.02700
C1638       C  0.02870679  0.59296334  0.78656504    -0.05400
C1639       C  0.03987231  0.56714433  0.78261821    -0.16200
C1640       C  0.06036272  0.57151993  0.76564128     0.02700
C1641       C  0.07506684  0.65986341  0.74618410     0.12700
C1642       C  0.02617056  0.65040435  0.77976548     0.63300
H1643       H  0.51593191  0.59106763  0.79797637     0.12700
C1644       C  0.07633378  0.54819137  0.75899419     0.55400
H1645       H  0.08469632  0.60450186  0.74113432     0.08500
C1646       C  0.11264305  0.68703988  0.74745144    -0.05300
C1647       C  0.12695148  0.71482068  0.73401148    -0.06000
C1648       C  0.10529805  0.71595656  0.71922837    -0.15600
C1649       C  0.06743567  0.68941112  0.71820791    -0.01200
C1650       C  0.05303749  0.66132641  0.73162897    -0.08800
C1651       C  0.13793449  0.68618929  0.76261394     0.65500
H1652       H  0.15559961  0.73584819  0.73477431     0.11000
C1653       C  0.04217063  0.69163795  0.70351355     0.63900
H1654       H  0.02452928  0.64006750  0.73078898     0.08300
F1655       F  0.11431747  0.56909154  0.75671144    -0.19100
F1656       F  0.06096466  0.53311745  0.74195073    -0.15400
F1657       F  0.07023371  0.52123099  0.77117578    -0.18800
F1658       F  0.51122085  0.65372763  0.76477057    -0.22200
F1659       F  0.05662996  0.68416301  0.78165902    -0.23700
F1660       F  0.51263677  0.64480544  0.79564984    -0.17700
F1661       F  0.05440730  0.68918150  0.68582008    -0.20200
F1662       F  0.04225674  0.72404149  0.70506080    -0.21300
F1663       F  0.00596177  0.66424101  0.70557591    -0.18500
F1664       F  0.17190987  0.71734883  0.76264815    -0.18600
F1665       F  0.14424754  0.65759215  0.75965113    -0.22400
F1666       F  0.12182732  0.68252937  0.78006725    -0.24100
C1667       C  0.07311337  0.93499329  0.77401664    -0.10900
C1668       C  0.04431765  0.91125685  0.76255095     0.11700
C1669       C  0.00785476  0.90489984  0.76567793    -0.02700
C1670       C  0.00211889  0.92513365  0.77944291    -0.05400
C1671       C  0.03153965  0.95138209  0.78991485    -0.16200
C1672       C  0.06784787  0.95569943  0.78759604     0.02700
C1673       C  0.05461834  0.89614703  0.74649431     0.12700
C1674       C  0.97553237  0.87785875  0.75416189     0.63300
H1675       H  0.47617579  0.92228941  0.77926053     0.12700
C1676       C  0.10022635  0.48310774  0.79468333     0.55400
H1677       H  0.10075217  0.93886837  0.77148927     0.08500
C1678       C  0.07469587  0.91812450  0.73102897    -0.05300
C1679       C  0.08997039  0.90447668  0.71794367    -0.06000
C1680       C  0.08511951  0.86973266  0.71984035    -0.15600
C1681       C  0.06124054  0.84634993  0.73394872    -0.01200
C1682       C  0.04727028  0.86043366  0.74752070    -0.08800
C1683       C  0.08093366  0.95617041  0.72865447     0.65500
H1684       H  0.10749484  0.92152966  0.70669968     0.11000
C1685       C  0.04954145  0.80656294  0.73422321     0.63900
H1686       H  0.03156562  0.84400483  0.75935256     0.08300
F1687       F  0.12051269  0.51210312  0.78296564    -0.19100
F1688       F  0.12263446  0.46843461  0.79871785    -0.15400
F1689       F  0.09303299  0.49481086  0.81120739    -0.18800
F1690       F  0.97014607  0.84368249  0.75757076    -0.22200
F1691       F  0.98271843  0.88578340  0.73529656    -0.23700
F1692       F  0.44588775  0.87870697  0.75587494    -0.17700
F1693       F  0.07907086  0.80149677  0.73897119    -0.20200
F1694       F  0.03683183  0.79220923  0.71669632    -0.21300
F1695       F  0.02120977  0.78779236  0.74702065    -0.18500
F1696       F  0.09580146  0.97035984  0.71122824    -0.18600
F1697       F  0.10518566  0.97836561  0.74206831    -0.22400
F1698       F  0.04761669  0.95624259  0.73040737    -0.24100
C1699       C  0.28994806  0.75566622  0.42734444    -0.10900
C1700       C  0.25743991  0.75694782  0.42364855     0.11700
C1701       C  0.23941352  0.74480093  0.40628333    -0.02700
C1702       C  0.25388085  0.73015552  0.39333002    -0.05400
C1703       C  0.28621148  0.72818325  0.39698984    -0.16200
C1704       C  0.30507860  0.74170807  0.41428262     0.02700
C1705       C  0.24435351  0.77370089  0.43767095     0.12700
C1706       C  0.20555168  0.74813404  0.40130638     0.63300
H1707       H  0.23990738  0.72012184  0.38013278     0.12700
C1708       C  0.34149222  0.74270784  0.41897242     0.55400
H1709       H  0.30347760  0.76599391  0.44062102     0.08500
C1710       C  0.21862946  0.75355377  0.45188985    -0.05300
C1711       C  0.20271274  0.77035634  0.46243606    -0.06000
C1712       C  0.21448810  0.80727637  0.46044487    -0.15600
C1713       C  0.24487522  0.82828863  0.44831468    -0.01200
C1714       C  0.25816479  0.81081451  0.43651278    -0.08800
C1715       C  0.20825984  0.71473402  0.45589128     0.65500
H1716       H  0.17931540  0.75408197  0.47139841     0.11000
C1717       C  0.26463707  0.86893507  0.44806478     0.63900
H1718       H  0.27944711  0.82613733  0.42617098     0.08300
F1719       F  0.33561998  0.70819310  0.42178420    -0.19100
F1720       F  0.35711442  0.76188632  0.43514246    -0.15400
F1721       F  0.36678526  0.75911181  0.40454650    -0.18800
F1722       F  0.21483543  0.78397240  0.40110113    -0.22200
F1723       F  0.17776521  0.72988952  0.41435609    -0.23700
F1724       F  0.19181925  0.73407931  0.38384814    -0.17700
F1725       F  0.30132480  0.88274572  0.44263253    -0.20200
F1726       F  0.26452277  0.88166308  0.46578936    -0.21300
F1727       F  0.24784644  0.88119981  0.43555006    -0.18500
F1728       F  0.18428367  0.70083820  0.47105237    -0.18600
F1729       F  0.23990821  0.71275066  0.45999963    -0.22400
F1730       F  0.19136396  0.69359336  0.44051409    -0.24100
C1731       C  0.08564173  0.78483952  0.41269799    -0.10900
C1732       C  0.05467800  0.78931853  0.41496161     0.11700
C1733       C  0.04957931  0.80402976  0.43160981    -0.02700
C1734       C  0.07604407  0.81346775  0.44574133    -0.05400
C1735       C  0.10653408  0.80724049  0.44423456    -0.16200
C1736       C  0.11127213  0.79235178  0.42714383     0.02700
C1737       C  0.02400769  0.77007740  0.40187822     0.12700
C1738       C  0.01568698  0.80868415  0.43465042     0.63300
H1739       H  0.07280106  0.82586901  0.45822972     0.12700
C1740       C  0.14072893  0.78144205  0.42377195     0.55400
H1741       H  0.08821436  0.77308489  0.39973072     0.08500
C1742       C  0.01928801  0.78566087  0.38534707    -0.05300
C1743       C  0.48714338  0.76639394  0.37670994    -0.06000
C1744       C  0.45865072  0.73236049  0.38235152    -0.15600
C1745       C  0.46324695  0.71579486  0.39870398    -0.01200
C1746       C  0.49470317  0.73534646  0.40968296    -0.08800
C1747       C  0.04896558  0.82216941  0.37830388     0.65500
H1748       H  0.48372455  0.77821807  0.36393161     0.11000
C1749       C  0.43547832  0.67765914  0.40474847     0.63900
H1750       H  0.49818539  0.72379821  0.42256918     0.08300
F1751       F  0.17319511  0.81050808  0.41751083    -0.19100
F1752       F  0.12962879  0.75500912  0.41027372    -0.15400
F1753       F  0.14701088  0.76734837  0.43975377    -0.18800
F1754       F  0.98392043  0.77557819  0.43451281    -0.22200
F1755       F  0.01343656  0.82989466  0.42059908    -0.23700
F1756       F  0.01693919  0.82488256  0.45159114    -0.17700
F1757       F  0.42452019  0.65498841  0.38947834    -0.20200
F1758       F  0.40484913  0.67719195  0.41294331    -0.21300
F1759       F  0.45059701  0.66421689  0.41767603    -0.18500
F1760       F  0.03751052  0.83315752  0.36258819    -0.18600
F1761       F  0.08041400  0.82018114  0.37360105    -0.22400
F1762       F  0.05793763  0.84795780  0.39192155    -0.24100
C1763       C  0.21176535  0.95040785  0.43012773    -0.10900
C1764       C  0.24858739  0.97419348  0.43444620     0.11700
C1765       C  0.26402956  0.96869705  0.45098734    -0.02700
C1766       C  0.24250237  0.93733170  0.46178581    -0.05400
C1767       C  0.20616467  0.91194780  0.45665378    -0.16200
C1768       C  0.18988030  0.92013621  0.44120553     0.02700
C1769       C  0.26816421  0.00578858  0.42176380     0.12700
C1770       C  0.30289496  0.99560543  0.45708891     0.63300
H1771       H  0.25402737  0.93225840  0.47425713     0.12700
C1772       C  0.14939018  0.89866886  0.43628315     0.55400
H1773       H  0.19989893  0.95601106  0.41788948     0.08500
C1774       C  0.28013410  0.00263329  0.40359372    -0.05300
C1775       C  0.29130815  0.53306245  0.39032745    -0.06000
C1776       C  0.28812085  0.56363434  0.39436562    -0.15600
C1777       C  0.27457422  0.56669188  0.41226865    -0.01200
C1778       C  0.26482116  0.53886655  0.42544069    -0.08800
C1779       C  0.28172783  0.96913399  0.39788334     0.65500
H1780       H  0.30183210  0.53126806  0.37668989     0.11000
C1781       C  0.26858216  0.59818318  0.41731521     0.63900
H1782       H  0.25326127  0.53999137  0.43890292     0.08300
F1783       F  0.14459496  0.87220465  0.42377244    -0.19100
F1784       F  0.13692602  0.92026008  0.42800847    -0.15400
F1785       F  0.12812903  0.88401200  0.45211941    -0.18800
F1786       F  0.30290634  0.53155358  0.46041383    -0.22200
F1787       F  0.32800090  0.50428535  0.44347058    -0.23700
F1788       F  0.31313740  0.98433221  0.47312088    -0.17700
F1789       F  0.24844456  0.59192038  0.43378220    -0.20200
F1790       F  0.24914929  0.60405964  0.40326009    -0.21300
F1791       F  0.30236311  0.62880114  0.41976067    -0.18500
F1792       F  0.29873839  0.97342643  0.38059788    -0.18600
F1793       F  0.24630382  0.94023579  0.39686890    -0.22400
F1794       F  0.30170690  0.96156403  0.41089491    -0.24100
C1795       C  0.26953732  0.71882607  0.59911794    -0.10900
C1796       C  0.28728387  0.75535748  0.59486952     0.11700
C1797       C  0.31352487  0.76875700  0.58011747    -0.02700
C1798       C  0.31947160  0.74415477  0.56939526    -0.05400
C1799       C  0.30126118  0.70685730  0.57339105    -0.16200
C1800       C  0.27568409  0.69419136  0.58881715     0.02700
C1801       C  0.27539572  0.77737536  0.60610356     0.12700
C1802       C  0.33499546  0.80871021  0.57587158     0.63300
H1803       H  0.33824780  0.75402043  0.55758238     0.12700
C1804       C  0.25214836  0.65499868  0.59395504     0.55400
H1805       H  0.24967093  0.70968283  0.61056610     0.08500
C1806       C  0.24286756  0.77916834  0.60161804    -0.05300
C1807       C  0.22537605  0.78874585  0.61563165    -0.06000
C1808       C  0.23943072  0.79712206  0.63382178    -0.15600
C1809       C  0.27338072  0.79799191  0.63800550    -0.01200
C1810       C  0.29065131  0.78774097  0.62404737    -0.08800
C1811       C  0.22450939  0.77019029  0.58259400     0.65500
H1812       H  0.20001007  0.78926336  0.61235949     0.11000
C1813       C  0.29017259  0.80782754  0.65738251     0.63900
H1814       H  0.31514233  0.78571437  0.62734933     0.08300
F1815       F  0.23023575  0.63727196  0.57891778    -0.19100
F1816       F  0.22854943  0.64955242  0.60895299    -0.15400
F1817       F  0.27434364  0.64072059  0.59911809    -0.18800
F1818       F  0.35513495  0.82672128  0.59144412    -0.22200
F1819       F  0.31089758  0.82140175  0.57140260    -0.23700
F1820       F  0.35946118  0.81637396  0.56102899    -0.17700
F1821       F  0.32152651  0.80409128  0.65895505    -0.20200
F1822       F  0.26460239  0.78571642  0.67063934    -0.21300
F1823       F  0.30020056  0.84319514  0.66113824    -0.18500
F1824       F  0.22292389  0.79978680  0.57566398    -0.18600
F1825       F  0.18878889  0.74193053  0.58455726    -0.22400
F1826       F  0.24307327  0.76081983  0.56960691    -0.24100
C1827       C  0.46094936  0.74763972  0.58418358    -0.10900
C1828       C  0.46242636  0.72522775  0.59820165     0.11700
C1829       C  0.43167798  0.69054754  0.60090530    -0.02700
C1830       C  0.40248203  0.67787660  0.58791723    -0.05400
C1831       C  0.40144125  0.69975072  0.57330512    -0.16200
C1832       C  0.42992837  0.73630641  0.57246585     0.02700
C1833       C  0.49467061  0.74039069  0.61111482     0.12700
C1834       C  0.42893593  0.66774609  0.61789572     0.63300
H1835       H  0.38004267  0.65050139  0.58910911     0.12700
C1836       C  0.42822720  0.76520609  0.56075769     0.55400
H1837       H  0.48348396  0.77505657  0.58307276     0.08500
C1838       C  0.02195730  0.73721059  0.60555790    -0.05300
C1839       C  0.05134552  0.75259977  0.61839797    -0.06000
C1840       C  0.05058574  0.77295956  0.63362571    -0.15600
C1841       C  0.01910335  0.77773656  0.63635980    -0.01200
C1842       C  0.49259715  0.75840878  0.62706349    -0.08800
C1843       C  0.02460332  0.71654237  0.58892679     0.65500
H1844       H  0.07557903  0.74937934  0.61644901     0.11000
C1845       C  0.01552179  0.79788040  0.65307176     0.63900
H1846       H  0.46751027  0.76001514  0.62938158     0.08300
F1847       F  0.45610984  0.77804569  0.54748525    -0.19100
F1848       F  0.43317519  0.79329262  0.57220940    -0.15400
F1849       F  0.39497747  0.75334575  0.55180761    -0.18800
F1850       F  0.42823666  0.68531276  0.63399561    -0.22200
F1851       F  0.95284088  0.66493593  0.61962784    -0.23700
F1852       F  0.39702507  0.63464004  0.61766698    -0.17700
F1853       F  0.54063660  0.82877592  0.65632720    -0.20200
F1854       F  0.02266475  0.78491068  0.66944386    -0.21300
F1855       F  0.98024705  0.79380903  0.65459377    -0.18500
F1856       F  0.05770564  0.71573674  0.58862283    -0.18600
F1857       F  0.02232693  0.73264913  0.57250245    -0.22400
F1858       F  0.99610453  0.68147452  0.58966978    -0.24100
C1859       C  0.25484326  0.50914862  0.62843026    -0.10900
C1860       C  0.24604012  0.50152174  0.60943592     0.11700
C1861       C  0.22788287  0.96710774  0.60622976    -0.02700
C1862       C  0.21498744  0.93963813  0.61971253    -0.05400
C1863       C  0.21337216  0.94673746  0.63865989    -0.16200
C1864       C  0.22457783  0.98203656  0.64467117     0.02700
C1865       C  0.26125485  0.53193014  0.59582893     0.12700
C1866       C  0.22617342  0.95765356  0.58564899     0.63300
H1867       H  0.20558908  0.91211840  0.61555188     0.12700
C1868       C  0.21978120  0.98948386  0.66493649     0.55400
H1869       H  0.27207460  0.53691582  0.63244962     0.08500
C1870       C  0.24344018  0.55230077  0.59205380    -0.05300
C1871       C  0.25933852  0.58011545  0.57863655    -0.06000
C1872       C  0.29340699  0.59015992  0.56983523    -0.15600
C1873       C  0.30948991  0.56753704  0.57266883    -0.01200
C1874       C  0.29397515  0.53994362  0.58623055    -0.08800
C1875       C  0.20866412  0.54563544  0.60266370     0.65500
H1876       H  0.24502251  0.59423427  0.57477506     0.11000
C1877       C  0.34118517  0.56909668  0.56137947     0.63900
H1878       H  0.30694379  0.52354420  0.58895481     0.08300
F1879       F  0.27148548  0.52740545  0.66532799    -0.19100
F1880       F  0.23320438  0.02576309  0.66806445    -0.15400
F1881       F  0.23850085  0.97768286  0.67649951    -0.18800
F1882       F  0.26141483  0.97233022  0.57808174    -0.22200
F1883       F  0.20634972  0.97089321  0.57616131    -0.23700
F1884       F  0.20879447  0.92087874  0.58290965    -0.17700
F1885       F  0.37220270  0.58118432  0.57254176    -0.20200
F1886       F  0.34935657  0.59075870  0.54590368    -0.21300
F1887       F  0.33167307  0.53503121  0.55504175    -0.18500
F1888       F  0.19468743  0.56727220  0.59616800    -0.18600
F1889       F  0.21682400  0.55293203  0.62142746    -0.22400
F1890       F  0.18131714  0.51027543  0.60083822    -0.24100
C1891       C  0.18735908  0.73923812  0.51216390    -0.10900
C1892       C  0.22516550  0.75488886  0.51627047     0.11700
C1893       C  0.24681446  0.79292509  0.51420939    -0.02700
C1894       C  0.23127840  0.81198950  0.50519927    -0.05400
C1895       C  0.19310522  0.79661244  0.50165784    -0.16200
C1896       C  0.17042513  0.75998308  0.50739109     0.02700
C1897       C  0.24211340  0.73130906  0.52091390     0.12700
C1898       C  0.28629244  0.81494502  0.52113202     0.63300
H1899       H  0.24961687  0.83927065  0.50075630     0.12700
C1900       C  0.12879327  0.74061323  0.50913473     0.55400
H1901       H  0.17023745  0.71042888  0.51327703     0.08500
C1902       C  0.22883402  0.70390968  0.53496768    -0.05300
C1903       C  0.25010553  0.68699188  0.53922596    -0.06000
C1904       C  0.28561764  0.69816201  0.53156347    -0.15600
C1905       C  0.29703705  0.72348834  0.51648614    -0.01200
C1906       C  0.27403078  0.73772563  0.51087654    -0.08800
C1907       C  0.19233940  0.69098396  0.54546367     0.65500
H1908       H  0.23949118  0.66537916  0.54933121     0.11000
C1909       C  0.33347992  0.73691857  0.50644534     0.63900
H1910       H  0.28213941  0.75623710  0.49913052     0.08300
F1911       F  0.11863921  0.72457324  0.52665722    -0.19100
F1912       F  0.11368782  0.71406397  0.49577917    -0.15400
F1913       F  0.11437562  0.76334147  0.50757310    -0.18800
F1914       F  0.31041217  0.82699905  0.50599653    -0.22200
F1915       F  0.29659176  0.79602000  0.53323151    -0.23700
F1916       F  0.28952069  0.84437206  0.53082636    -0.17700
F1917       F  0.34168251  0.76602035  0.49483057    -0.20200
F1918       F  0.33174646  0.70971861  0.49535139    -0.21300
F1919       F  0.36140041  0.74809156  0.51946191    -0.18500
F1920       F  0.19308477  0.67637872  0.56271588    -0.18600
F1921       F  0.16392397  0.66463145  0.53515567    -0.22400
F1922       F  0.18476694  0.71865210  0.54875901    -0.24100
C1923       C  0.22567629  0.95592905  0.51822158    -0.10900
C1924       C  0.21701400  0.98005392  0.50898626     0.11700
C1925       C  0.19170912  0.96739041  0.49397827    -0.02700
C1926       C  0.17370071  0.93037553  0.48982167    -0.05400
C1927       C  0.18546051  0.90694646  0.49736027    -0.16200
C1928       C  0.21186820  0.92012613  0.51204995     0.02700
C1929       C  0.23737946  0.52301698  0.51491272     0.12700
C1930       C  0.18478227  0.49770525  0.48249027     0.63300
H1931       H  0.15357942  0.92050089  0.47877053     0.12700
C1932       C  0.22858565  0.89819601  0.51979057     0.55400
H1933       H  0.24568229  0.96631398  0.52944042     0.08500
C1934       C  0.22380655  0.53955151  0.52755089    -0.05300
C1935       C  0.24766516  0.57518087  0.53314286    -0.06000
C1936       C  0.28544320  0.59405342  0.52801899    -0.15600
C1937       C  0.29814388  0.57841399  0.51420313    -0.01200
C1938       C  0.27366509  0.54333485  0.50790485    -0.08800
C1939       C  0.18342454  0.00965768  0.53631979     0.65500
H1940       H  0.23704938  0.58781827  0.54263236     0.11000
C1941       C  0.33673088  0.59612536  0.50563118     0.63900
H1942       H  0.28359104  0.53089096  0.49786015     0.08300
F1943       F  0.25365466  0.91586819  0.53394446    -0.19100
F1944       F  0.24725218  0.89199050  0.50551635    -0.15400
F1945       F  0.20120249  0.86597058  0.52700218    -0.18800
F1946       F  0.21794624  0.52440166  0.47518235    -0.22200
F1947       F  0.16884821  0.51325334  0.49343147    -0.23700
F1948       F  0.16158702  0.97547563  0.46702512    -0.17700
F1949       F  0.35199747  0.57375201  0.50781550    -0.20200
F1950       F  0.36057975  0.62865667  0.51345743    -0.21300
F1951       F  0.33421832  0.60151962  0.48670041    -0.18500
F1952       F  0.18803978  0.52181249  0.55545405    -0.18600
F1953       F  0.18248534  0.97999783  0.54470108    -0.22400
F1954       F  0.15592443  0.99788710  0.52303478    -0.24100
C1955       C  0.47480715  0.72273284  0.52708162    -0.10900
C1956       C  0.47818465  0.74469278  0.51177854     0.11700
C1957       C  0.44521209  0.74047423  0.50351168    -0.02700
C1958       C  0.41076470  0.71857094  0.51262978    -0.05400
C1959       C  0.40748011  0.69990402  0.52946246    -0.16200
C1960       C  0.44005724  0.69845544  0.53499801     0.02700
C1961       C  0.00883744  0.75906702  0.50067072     0.12700
C1962       C  0.44627846  0.75760988  0.48470354     0.63300
H1963       H  0.38608405  0.71495651  0.50615795     0.12700
C1964       C  0.44007765  0.66893515  0.54673512     0.55400
H1965       H  0.49953386  0.72257513  0.53203199     0.08500
C1966       C  0.03498361  0.79404451  0.50670662    -0.05300
C1967       C  0.07110522  0.81091028  0.49895569    -0.06000
C1968       C  0.08274369  0.79348120  0.48613234    -0.15600
C1969       C  0.05662417  0.75765834  0.48068620    -0.01200
C1970       C  0.01999953  0.74197628  0.48752608    -0.08800
C1971       C  0.02529499  0.81315174  0.52168415     0.65500
H1972       H  0.09096536  0.83793110  0.50313159     0.11000
C1973       C  0.06560788  0.73346443  0.46879973     0.63900
H1974       H  0.00016636  0.71484635  0.48339752     0.08300
F1975       F  0.46326819  0.68358636  0.56177270    -0.19100
F1976       F  0.45305864  0.65037836  0.53599773    -0.15400
F1977       F  0.40561985  0.64472033  0.55319419    -0.18800
F1978       F  0.46041701  0.74410853  0.47135693    -0.22200
F1979       F  0.46852405  0.79442961  0.48560716    -0.23700
F1980       F  0.41136517  0.75051068  0.47902744    -0.17700
F1981       F  0.05037168  0.69961704  0.47692161    -0.20200
F1982       F  0.10308395  0.74603100  0.46710479    -0.21300
F1983       F  0.05039049  0.73003036  0.45122322    -0.18500
F1984       F  0.05384235  0.84770572  0.52467735    -0.18600
F1985       F  0.01839615  0.79429304  0.53835160    -0.22400
F1986       F  0.99435551  0.81545464  0.51642182    -0.24100
C1987       C  0.82464231  0.16311075  0.56992646     0.46500
H1988       H  0.82385336  0.16088640  0.58538537    -0.02500
C1989       C  0.82735291  0.16859002  0.53366686     0.46500
H1990       H  0.82778045  0.17051357  0.51840858    -0.02500
C1991       C  0.86446103  0.18332587  0.56234680    -0.16200
C1992       C  0.80616951  0.12612211  0.55978924    -0.16000
C1993       C  0.80641572  0.18488101  0.56251676    -0.16400
C1994       C  0.86691006  0.18425421  0.54298856    -0.16300
C1995       C  0.80577816  0.12904675  0.54053148    -0.15900
C1996       C  0.80699992  0.18745415  0.54314114    -0.16200
C1997       C  0.65534561  0.33557454  0.49193857     0.46500
H1998       H  0.64736611  0.33330005  0.50690651    -0.02500
C1999       C  0.67282926  0.34078722  0.45663875     0.46500
H2000       H  0.68060954  0.34358149  0.44169052    -0.02500
C2001       C  0.68037905  0.31862701  0.48731950    -0.16200
C2002       C  0.62132847  0.31526319  0.47883126    -0.16000
C2003       C  0.67609517  0.37534324  0.48438680    -0.16400
C2004       C  0.69032718  0.32259352  0.46863186    -0.16300
C2005       C  0.63071611  0.31879036  0.46003794    -0.15900
C2006       C  0.68468150  0.37729666  0.46562334    -0.16200
Zn2007     Zn  0.71473221  0.36630280  0.67406260     1.49700
Zn2008     Zn  0.65692611  0.33012669  0.70682765     1.49400
Zn2009     Zn  0.63159009  0.35218504  0.66931301     1.49100
Zn2010     Zn  0.64595281  0.28478538  0.67000842     1.49500
O2011       O  0.66239056  0.33320734  0.67983518    -1.83100
O2012       O  0.74590621  0.38526890  0.69756646    -0.73700
O2013       O  0.62203616  0.34631509  0.71502300    -0.73600
O2014       O  0.66206392  0.39650496  0.65368388    -0.73100
O2015       O  0.70431956  0.35960691  0.72029412    -0.73800
O2016       O  0.72016782  0.40856391  0.65873340    -0.73300
O2017       O  0.60504352  0.36390983  0.68941137    -0.65200
O2018       O  0.60083033  0.26855833  0.65339225    -0.73300
O2019       O  0.63611687  0.28027571  0.71623334    -0.74100
O2020       O  0.59159390  0.31569188  0.65318732    -0.73500
O2021       O  0.63001877  0.24734434  0.69115011    -0.73900
O2022       O  0.68735280  0.28621795  0.65402282    -0.73800
O2023       O  0.73514835  0.34144520  0.65771271    -0.73600
C2024       C  0.73745056  0.37990237  0.71492608     0.78200
C2025       C  0.60331518  0.35871897  0.70702370     0.78600
C2026       C  0.69683792  0.41604013  0.65120359     0.77600
C2027       C  0.58226386  0.28377421  0.64833131     0.78000
C2028       C  0.62657621  0.25011282  0.70874403     0.79100
C2029       C  0.72067703  0.31029857  0.65047228     0.78200
C2030       C  0.50806193  0.99895559  0.78937098     0.46500
H2031       H  0.51192334  0.99828938  0.77454258    -0.02500
C2032       C  0.50426171  0.00030690  0.82538499     0.46500
H2033       H  0.50219345  0.00108453  0.84067597    -0.02500
C2034       C  0.96442031  0.48401355  0.79598980    -0.16200
C2035       C  0.52123831  0.47613102  0.79957897    -0.16000
C2036       C  0.53056083  0.03686868  0.79672815    -0.16400
C2037       C  0.96289801  0.48317082  0.81557362    -0.16300
C2038       C  0.51999294  0.47755656  0.81879626    -0.15900
C2039       C  0.53041925  0.03837900  0.81595937    -0.16200
C2040       C  0.66451260  0.32821847  0.86541898     0.46500
H2041       H  0.66474174  0.33113828  0.85011445    -0.02500
C2042       C  0.66597629  0.32302684  0.90145595     0.46500
H2043       H  0.66442032  0.31831648  0.91648886    -0.02500
C2044       C  0.63664609  0.33756266  0.87596880    -0.16200
C2045       C  0.65316206  0.28937615  0.87204675    -0.16000
C2046       C  0.70412107  0.35270853  0.87404265    -0.16400
C2047       C  0.63841382  0.33495950  0.89506583    -0.16300
C2048       C  0.65544290  0.28758889  0.89125892    -0.15900
C2049       C  0.70387660  0.35188239  0.89367392    -0.16200
C2050       C  0.83193514  0.16659590  0.12296204     0.46500
H2051       H  0.83112425  0.16614746  0.10738855    -0.02500
C2052       C  0.83353186  0.16760344  0.15931780     0.46500
H2053       H  0.83413376  0.16778245  0.17457626    -0.02500
C2054       C  0.79404032  0.14414902  0.13190856    -0.16200
C2055       C  0.85598023  0.15201369  0.13101831    -0.16000
C2056       C  0.84690949  0.20414310  0.13086822    -0.16400
C2057       C  0.79360458  0.14531504  0.15119007    -0.16300
C2058       C  0.85651244  0.15102150  0.15037690    -0.15900
C2059       C  0.84929403  0.20580452  0.15020097    -0.16200
C2060       C  0.00203261  0.49467549  0.19744132     0.46500
H2061       H  0.00177781  0.49584541  0.18190666    -0.02500
C2062       C  0.00223377  0.49192741  0.23381431     0.46500
H2063       H  0.00344457  0.49146076  0.24923515    -0.02500
C2064       C  0.97387934  0.01150692  0.20878445    -0.16200
C2065       C  0.98892562  0.45622168  0.20539888    -0.16000
C2066       C  0.53683053  0.02322254  0.20972231    -0.16400
C2067       C  0.97373990  0.01035363  0.22813014    -0.16300
C2068       C  0.98860902  0.45499694  0.22472614    -0.15900
C2069       C  0.53529497  0.02181318  0.22902744    -0.16200
Zn2070     Zn  0.80349973  0.12037652  0.33887733     1.49700
Zn2071     Zn  0.83814705  0.17407519  0.37298538     1.49400
Zn2072     Zn  0.88118131  0.19449118  0.33470907     1.49100
Zn2073     Zn  0.80500203  0.19696214  0.34012804     1.49500
O2074       O  0.83177715  0.17109320  0.34631025    -1.83100
O2075       O  0.78962196  0.08763007  0.36209211    -0.73700
O2076       O  0.89019411  0.20212614  0.38018707    -0.73600
O2077       O  0.88926354  0.15844300  0.32020713    -0.73100
O2078       O  0.81893210  0.12686875  0.38464946    -0.73800
O2079       O  0.83520368  0.10796599  0.32160987    -0.73300
O2080       O  0.92278009  0.21876204  0.35380976    -0.73900
O2081       O  0.83428168  0.23635196  0.32172109    -0.73300
O2082       O  0.81251713  0.19674337  0.38559228    -0.74100
O2083       O  0.88463214  0.23155410  0.31615000    -0.73500
O2084       O  0.79121391  0.21682324  0.36285807    -0.73900
O2085       O  0.75898466  0.16490735  0.32627902    -0.73800
O2086       O  0.75720426  0.11192881  0.32435609    -0.73600
C2087       C  0.79901035  0.09493025  0.37922780     0.78200
C2088       C  0.92094866  0.21817231  0.37164121     0.78600
C2089       C  0.86873105  0.12567538  0.31581856     0.77600
C2090       C  0.86440172  0.24586596  0.31283388     0.78000
C2091       C  0.79611663  0.21361090  0.38022038     0.79100
C2092       C  0.74413544  0.13284216  0.32037191     0.78200
Zn2093     Zn  0.00985695  0.50244592  0.98615386     1.49700
Zn2094     Zn  0.52531933  0.04627593  0.02049223     1.49400
Zn2095     Zn  0.95247877  0.47415026  0.01993241     1.49100
Zn2096     Zn  0.52865530  0.47299974  0.02288893     1.49500
O2097       O  0.00543598  0.49974375  0.01324387    -1.83100
O2098       O  0.53406007  0.05059780  0.97460374    -0.73700
O2099       O  0.98885854  0.05569751  0.03652341    -0.73600
O2100       O  0.91957389  0.45901874  0.99660160    -0.73100
O2101       O  0.54773609  0.08383150  0.00013037    -0.73800
O2102       O  0.96058837  0.47920727  0.97331435    -0.73300
O2103       O  0.93633539  0.00365433  0.03646888    -0.73900
O2104       O  0.99481617  0.43100710  0.03809603    -0.73300
O2105       O  0.56581618  0.05341194  0.03806989    -0.74100
O2106       O  0.94071771  0.43021527  0.03598678    -0.73500
O2107       O  0.56811690  0.00238329  0.03713887    -0.73900
O2108       O  0.54721063  0.45310378  0.00255306    -0.73800
O2109       O  0.53316162  0.47297329  0.97680072    -0.73600
C2110       C  0.54878140  0.08109272  0.98245969     0.78200
C2111       C  0.95538721  0.03613109  0.04176785     0.78600
C2112       C  0.92721772  0.46292258  0.97909895     0.77600
C2113       C  0.96063567  0.41733744  0.04241079     0.78000
C2114       C  0.57971126  0.03400499  0.04331169     0.79100
C2115       C  0.54710415  0.45573878  0.98482316     0.78200
C2116       C  0.62621246  0.05895986  0.25648731    -0.10900
C2117       C  0.62130739  0.08071202  0.26944959     0.11700
C2118       C  0.59031266  0.08619160  0.26798697    -0.02700
C2119       C  0.56282230  0.06595372  0.25471399    -0.05400
C2120       C  0.56698397  0.04290599  0.24199455    -0.16200
C2121       C  0.59969058  0.03960025  0.24290763     0.02700
C2122       C  0.64988069  0.09671733  0.28418552     0.12700
C2123       C  0.58796351  0.11537830  0.27906976     0.63300
H2124       H  0.53830247  0.06894519  0.25369494     0.12700
C2125       C  0.60880874  0.50697632  0.22931460     0.55400
H2126       H  0.65081937  0.05601309  0.25749189     0.08500
C2127       C  0.64694167  0.07827572  0.30127496    -0.05300
C2128       C  0.67813497  0.09124560  0.31301589    -0.06000
C2129       C  0.71208242  0.12076370  0.30774904    -0.15600
C2130       C  0.71534466  0.13830028  0.29034603    -0.01200
C2131       C  0.68379711  0.12639466  0.27904783    -0.08800
C2132       C  0.61173699  0.04397263  0.30661113     0.65500
H2133       H  0.67655737  0.07797468  0.32622843     0.11000
C2134       C  0.75258473  0.16782781  0.28314974     0.63900
H2135       H  0.68578633  0.13895381  0.26555133     0.08300
F2136       F  0.61511748  0.48439325  0.24089788    -0.19100
F2137       F  0.63906058  0.52497738  0.21752495    -0.15400
F2138       F  0.57833035  0.48594806  0.21879586    -0.18800
F2139       F  0.61589037  0.14854112  0.27310004    -0.22200
F2140       F  0.59218050  0.11184603  0.29799257    -0.23700
F2141       F  0.55430750  0.11449448  0.27652115    -0.17700
F2142       F  0.77840968  0.15600954  0.28368473    -0.20200
F2143       F  0.76469638  0.19811053  0.29409096    -0.21300
F2144       F  0.75053193  0.17748769  0.26483571    -0.18500
F2145       F  0.61517405  0.03022623  0.32363295    -0.18600
F2146       F  0.60388346  0.01808032  0.29314732    -0.22400
F2147       F  0.58218492  0.05045616  0.30804775    -0.24100
C2148       C  0.88739196  0.33106595  0.28545750    -0.10900
C2149       C  0.90493745  0.32655255  0.26970468     0.11700
C2150       C  0.90735470  0.29480635  0.26755768    -0.02700
C2151       C  0.89261016  0.26861045  0.28177451    -0.05400
C2152       C  0.87603439  0.27350299  0.29792830    -0.16200
C2153       C  0.87250510  0.30488112  0.29967812     0.02700
C2154       C  0.92568553  0.35798915  0.25737679     0.12700
C2155       C  0.92652000  0.28925355  0.25066114     0.63300
H2156       H  0.89462929  0.24428785  0.28056479     0.12700
C2157       C  0.85463516  0.31162132  0.31671510     0.55400
H2158       H  0.88660723  0.35600893  0.28676668     0.08500
C2159       C  0.90914560  0.36680238  0.24254273    -0.05300
C2160       C  0.93150004  0.39754295  0.23174064    -0.06000
C2161       C  0.96902202  0.42086977  0.23598726    -0.15600
C2162       C  0.98482684  0.41223978  0.25157632    -0.01200
C2163       C  0.96273479  0.38079386  0.26180416    -0.08800
C2164       C  0.86778459  0.34520240  0.23890875     0.65500
H2165       H  0.91891443  0.40488556  0.22058911     0.11000
C2166       C  0.02437995  0.43378102  0.25829006     0.63900
H2167       H  0.97454205  0.37393132  0.27364875     0.08300
F2168       F  0.85839062  0.34573334  0.31642138    -0.19100
F2169       F  0.87108509  0.30832063  0.33289292    -0.15400
F2170       F  0.81715618  0.28712088  0.31715527    -0.18800
F2171       F  0.96362261  0.31486531  0.25042000    -0.22200
F2172       F  0.91034945  0.29218397  0.23432558    -0.23700
F2173       F  0.92412068  0.25568958  0.25093882    -0.17700
F2174       F  0.04069801  0.41208217  0.25863034    -0.20200
F2175       F  0.02448272  0.44597611  0.27621837    -0.21300
F2176       F  0.04572881  0.46266539  0.24708105    -0.18500
F2177       F  0.85752991  0.35798584  0.22345424    -0.18600
F2178       F  0.84850894  0.34730734  0.25428931    -0.22400
F2179       F  0.85749093  0.30959924  0.23579908    -0.24100
C2180       C  0.91647285  0.02487395  0.26650037    -0.10900
C2181       C  0.92577748  0.06063459  0.26322503     0.11700
C2182       C  0.95098507  0.08012375  0.24862679    -0.02700
C2183       C  0.96599139  0.06271681  0.23773060    -0.05400
C2184       C  0.95601314  0.02635970  0.24059188    -0.16200
C2185       C  0.93036270  0.00696247  0.25530195     0.02700
C2186       C  0.91043623  0.07725898  0.27633625     0.12700
C2187       C  0.96198746  0.11911084  0.24461360     0.63300
H2188       H  0.48189942  0.07473409  0.22535582     0.12700
C2189       C  0.91611253  0.96733206  0.25917352     0.55400
H2190       H  0.89803543  0.01101809  0.27815569     0.08500
C2191       C  0.87341474  0.07073570  0.27524470    -0.05300
C2192       C  0.86075307  0.08653811  0.28864545    -0.06000
C2193       C  0.88373245  0.10828063  0.30304054    -0.15600
C2194       C  0.92027298  0.11335777  0.30458964    -0.01200
C2195       C  0.93285533  0.09757891  0.29116704    -0.08800
C2196       C  0.84746678  0.04736248  0.25996966     0.65500
H2197       H  0.83282168  0.08253182  0.28778175     0.11000
C2198       C  0.94566759  0.13435991  0.32057968     0.63900
H2199       H  0.96057613  0.10103082  0.29208879     0.08300
F2200       F  0.90481181  0.94845415  0.24277318    -0.19100
F2201       F  0.89575190  0.45402659  0.27345211    -0.15400
F2202       F  0.94332072  0.96217174  0.26736429    -0.18800
F2203       F  0.97972794  0.14001896  0.25994902    -0.22200
F2204       F  0.93076313  0.12201596  0.24080930    -0.23700
F2205       F  0.48153614  0.12968324  0.22621520    -0.17700
F2206       F  0.92710570  0.12233712  0.33750229    -0.20200
F2207       F  0.95725950  0.17056015  0.31838671    -0.21300
F2208       F  0.97693536  0.13029924  0.32120796    -0.18500
F2209       F  0.81306483  0.04541331  0.26119222    -0.18600
F2210       F  0.84211129  0.01280222  0.26144208    -0.22400
F2211       F  0.86247293  0.06131289  0.24256731    -0.24100
C2212       C  0.94314703  0.35565243  0.08456152    -0.10900
C2213       C  0.90895107  0.32624309  0.07992237     0.11700
C2214       C  0.89091660  0.32719166  0.06327817    -0.02700
C2215       C  0.90885052  0.35728281  0.05128246    -0.05400
C2216       C  0.94381443  0.38625363  0.05555608    -0.16200
C2217       C  0.96100983  0.38584933  0.07269400     0.02700
C2218       C  0.89293046  0.29467496  0.09277278     0.12700
C2219       C  0.85276920  0.29672028  0.05836445     0.63300
H2220       H  0.89568494  0.35842874  0.03840910     0.12700
C2221       C  0.99728235  0.41764501  0.07887421     0.55400
H2222       H  0.95589867  0.35455038  0.09758738     0.08500
C2223       C  0.90480890  0.26863785  0.09238056    -0.05300
C2224       C  0.88842000  0.23940899  0.10490208    -0.06000
C2225       C  0.86053511  0.23526711  0.11761785    -0.15600
C2226       C  0.84756866  0.26061079  0.11739734    -0.01200
C2227       C  0.86519654  0.29072232  0.10546951    -0.08800
C2228       C  0.93492893  0.27190120  0.07893890     0.65500
H2229       H  0.89790141  0.21977397  0.10515153     0.11000
C2230       C  0.81456849  0.25675778  0.12860604     0.63900
H2231       H  0.85632875  0.31085446  0.10560308     0.08300
F2232       F  0.00597020  0.41365972  0.09712562    -0.19100
F2233       F  0.99457060  0.44870273  0.07794096    -0.15400
F2234       F  0.02597475  0.42117414  0.06744073    -0.18800
F2235       F  0.82716980  0.29457565  0.07155660    -0.22200
F2236       F  0.85315070  0.26445943  0.05805570    -0.23700
F2237       F  0.84128883  0.30184982  0.04098657    -0.17700
F2238       F  0.82647182  0.28359893  0.14184541    -0.20200
F2239       F  0.79533889  0.22394801  0.13751264    -0.21300
F2240       F  0.79009109  0.26016880  0.11670307    -0.18500
F2241       F  0.94039262  0.24234892  0.08000905    -0.18600
F2242       F  0.96804574  0.30210517  0.08314664    -0.22400
F2243       F  0.92532111  0.27468966  0.06073176    -0.24100
C2244       C  0.63587869  0.07521710  0.08699252    -0.10900
C2245       C  0.66951886  0.07696187  0.08203178     0.11700
C2246       C  0.67317538  0.06272863  0.06477457    -0.02700
C2247       C  0.64298975  0.04864774  0.05245424    -0.05400
C2248       C  0.60984574  0.04844871  0.05704682    -0.16200
C2249       C  0.60569957  0.06112048  0.07472072     0.02700
C2250       C  0.70072181  0.09452616  0.09513539     0.12700
C2251       C  0.70862744  0.06220648  0.05953999     0.63300
H2252       H  0.64510840  0.03798237  0.03904083     0.12700
C2253       C  0.56936350  0.05897376  0.08078619     0.55400
H2254       H  0.63376610  0.08563911  0.10048438     0.08500
C2255       C  0.72400824  0.13218986  0.09505877    -0.05300
C2256       C  0.75410661  0.14694626  0.10734927    -0.06000
C2257       C  0.76124625  0.12530473  0.11966138    -0.15600
C2258       C  0.73798839  0.08743352  0.11952362    -0.01200
C2259       C  0.70723986  0.07288043  0.10763214    -0.08800
C2260       C  0.71674094  0.15663120  0.08224917     0.65500
H2261       H  0.77220570  0.17576660  0.10763820     0.11000
C2262       C  0.74474914  0.06094398  0.13077507     0.63900
H2263       H  0.68885378  0.04405479  0.10753277     0.08300
F2264       F  0.56241954  0.08201156  0.06998175    -0.19100
F2265       F  0.57005351  0.06845118  0.09935619    -0.15400
F2266       F  0.54067204  0.02422651  0.07874131    -0.18800
F2267       F  0.71435092  0.04046986  0.07198360    -0.22200
F2268       F  0.73860762  0.09652885  0.06015428    -0.23700
F2269       F  0.70699561  0.04903487  0.04167867    -0.17700
F2270       F  0.71787137  0.04553364  0.14457626    -0.20200
F2271       F  0.77912987  0.07646442  0.13896693    -0.21300
F2272       F  0.74255781  0.03411237  0.11912610    -0.18500
F2273       F  0.74399878  0.19221553  0.08373391    -0.18600
F2274       F  0.68314421  0.15432348  0.08693977    -0.22400
F2275       F  0.71568658  0.14653711  0.06379732    -0.24100
C2276       C  0.90954526  0.05309792  0.08391926    -0.10900
C2277       C  0.91438319  0.08718487  0.07947455     0.11700
C2278       C  0.93287004  0.10462125  0.06268101    -0.02700
C2279       C  0.94490518  0.08649338  0.05049568    -0.05400
C2280       C  0.93909216  0.05186529  0.05464046    -0.16200
C2281       C  0.92147738  0.03489108  0.07172869     0.02700
C2282       C  0.89921545  0.10364103  0.09263774     0.12700
C2283       C  0.94020054  0.14228587  0.05776382     0.63300
H2284       H  0.95929529  0.09937309  0.03761516     0.12700
C2285       C  0.90766120  0.49396002  0.07366924     0.55400
H2286       H  0.89595817  0.04074451  0.09704248     0.08500
C2287       C  0.86104912  0.09321841  0.09300158    -0.05300
C2288       C  0.84853779  0.10981304  0.10584863    -0.06000
C2289       C  0.87292377  0.13696488  0.11789412    -0.15600
C2290       C  0.91143108  0.14863740  0.11680548    -0.01200
C2291       C  0.92359527  0.13036762  0.10481566    -0.08800
C2292       C  0.83368213  0.06485806  0.07983070     0.65500
H2293       H  0.81927497  0.10147468  0.10668029     0.11000
C2294       C  0.94095740  0.18095766  0.12704147     0.63900
H2295       H  0.95278486  0.13809784  0.10436024     0.08300
F2296       F  0.88480583  0.47364722  0.05930537    -0.19100
F2297       F  0.88829368  0.48096844  0.09032905    -0.15400
F2298       F  0.93862209  0.48944323  0.07429418    -0.18800
F2299       F  0.96394847  0.16644498  0.07071511    -0.22200
F2300       F  0.90733807  0.14346143  0.05780355    -0.23700
F2301       F  0.95640369  0.15319181  0.04022509    -0.17700
F2302       F  0.95665570  0.16952950  0.14063802    -0.20200
F2303       F  0.92745232  0.20145993  0.13531456    -0.21300
F2304       F  0.96832767  0.20297871  0.11446455    -0.18500
F2305       F  0.79835213  0.06050991  0.08178861    -0.18600
F2306       F  0.83173300  0.03211764  0.08352305    -0.22400
F2307       F  0.84491535  0.07470596  0.06146602    -0.24100
C2308       C  0.91356053  0.12407358  0.18337918    -0.10900
C2309       C  0.90767639  0.09186528  0.17508972     0.11700
C2310       C  0.88309521  0.07829483  0.15976139    -0.02700
C2311       C  0.86460832  0.09685055  0.15377571    -0.05400
C2312       C  0.87268142  0.13073632  0.16082909    -0.16200
C2313       C  0.89772382  0.14457236  0.17613560     0.02700
C2314       C  0.92583219  0.07175437  0.18323568     0.12700
C2315       C  0.87742769  0.04515360  0.14910365     0.63300
H2316       H  0.84416032  0.08518743  0.14289465     0.12700
C2317       C  0.90830387  0.18052070  0.18505172     0.55400
H2318       H  0.93095926  0.13322389  0.19565133     0.08500
C2319       C  0.96426591  0.08326384  0.18119972    -0.05300
C2320       C  0.97842089  0.06148245  0.18857208    -0.06000
C2321       C  0.95555476  0.02874874  0.19783828    -0.15600
C2322       C  0.91689180  0.01654304  0.19882552    -0.01200
C2323       C  0.90321214  0.03914561  0.19251278    -0.08800
C2324       C  0.99033812  0.11854214  0.17153155     0.65500
H2325       H  0.00784555  0.07056807  0.18779021     0.11000
C2326       C  0.88857645  0.97940631  0.20553125     0.63900
H2327       H  0.87392746  0.03044103  0.19416920     0.08300
F2328       F  0.91560155  0.20640238  0.17154062    -0.19100
F2329       F  0.93987164  0.19243819  0.19583109    -0.15400
F2330       F  0.87992252  0.17722352  0.19659707    -0.18800
F2331       F  0.85652241  0.03977372  0.13312050    -0.22200
F2332       F  0.85923413  0.01479696  0.16021417    -0.23700
F2333       F  0.91141082  0.04917764  0.14363010    -0.17700
F2334       F  0.87347104  0.98203339  0.22236843    -0.20200
F2335       F  0.90354609  0.95689600  0.20761507    -0.21300
F2336       F  0.86046147  0.96389433  0.19252130    -0.18500
F2337       F  0.02590315  0.12338186  0.16989946    -0.18600
F2338       F  0.99231018  0.14692815  0.18170009    -0.22400
F2339       F  0.97765046  0.11922178  0.15373836    -0.24100
C2340       C  0.70889688  0.09149882  0.18362089    -0.10900
C2341       C  0.68283836  0.09918627  0.17518097     0.11700
C2342       C  0.69458728  0.12508986  0.16063442    -0.02700
C2343       C  0.73180064  0.14151599  0.15470698    -0.05400
C2344       C  0.75745117  0.13173446  0.16188448    -0.16200
C2345       C  0.74609095  0.10711501  0.17722298     0.02700
C2346       C  0.64369173  0.08034952  0.18222874     0.12700
C2347       C  0.66784017  0.13486546  0.15105059     0.63300
H2348       H  0.74099505  0.16173848  0.14380241     0.12700
C2349       C  0.77241981  0.09738713  0.18719571     0.55400
H2350       H  0.69962034  0.07278924  0.19530484     0.08500
C2351       C  0.61824144  0.04439932  0.17739036    -0.05300
C2352       C  0.58247718  0.02776766  0.18555099    -0.06000
C2353       C  0.57155022  0.04566485  0.19848628    -0.15600
C2354       C  0.59559802  0.08297644  0.20142018    -0.01200
C2355       C  0.63179210  0.09910144  0.19394158    -0.08800
C2356       C  0.62909979  0.02341473  0.16403488     0.65500
H2357       H  0.56341187  0.99983445  0.18268660     0.11000
C2358       C  0.58426607  0.10775345  0.21111037     0.63900
H2359       H  0.65091033  0.12699576  0.19707108     0.08300
F2360       F  0.79183506  0.08848336  0.17452102    -0.19100
F2361       F  0.75366735  0.06827271  0.19915961    -0.15400
F2362       F  0.79695610  0.12609717  0.19780324    -0.18800
F2363       F  0.68420946  0.15786093  0.13595398    -0.22200
F2364       F  0.65589357  0.15174344  0.16357263    -0.23700
F2365       F  0.63751144  0.10423657  0.14447503    -0.17700
F2366       F  0.60652793  0.12309470  0.22650972    -0.20200
F2367       F  0.54765327  0.09056178  0.21677417    -0.21300
F2368       F  0.58915054  0.13491109  0.19879644    -0.18500
F2369       F  0.65710559  0.01877928  0.17176368    -0.18600
F2370       F  0.64132586  0.04180343  0.14722040    -0.22400
F2371       F  0.59957334  0.98975593  0.16031954    -0.24100
C2372       C  0.87634898  0.28872154  0.18171888    -0.10900
C2373       C  0.90782607  0.31459456  0.17201487     0.11700
C2374       C  0.92141750  0.30359564  0.15661706    -0.02700
C2375       C  0.90390843  0.26700655  0.15202131    -0.05400
C2376       C  0.87005678  0.24149187  0.16020156    -0.16200
C2377       C  0.85628781  0.25250639  0.17575910     0.02700
C2378       C  0.92860495  0.35210887  0.17937123     0.12700
C2379       C  0.95321424  0.33052080  0.14440277     0.63300
H2380       H  0.91594779  0.25826494  0.14115937     0.12700
C2381       C  0.82110672  0.22704916  0.18630485     0.55400
H2382       H  0.86754604  0.29725498  0.19407756     0.08500
C2383       C  0.91644778  0.37787704  0.17736002    -0.05300
C2384       C  0.93884349  0.41292188  0.18443014    -0.06000
C2385       C  0.97237184  0.42264390  0.19370729    -0.15600
C2386       C  0.98565276  0.39749546  0.19423707    -0.01200
C2387       C  0.96264449  0.36228970  0.18794549    -0.08800
C2388       C  0.87984648  0.36830648  0.16807133     0.65500
H2389       H  0.92942710  0.43251889  0.18357577     0.11000
C2390       C  0.02500861  0.40818497  0.19983729     0.63900
H2391       H  0.97154232  0.34230083  0.18923108     0.08300
F2392       F  0.80989109  0.24527289  0.19840851    -0.19100
F2393       F  0.82714391  0.20327028  0.19690741    -0.15400
F2394       F  0.79252104  0.20840654  0.17399212    -0.18800
F2395       F  0.98599141  0.34580131  0.15425505    -0.22200
F2396       F  0.94573335  0.35725719  0.13846663    -0.23700
F2397       F  0.95822044  0.31455341  0.12862467    -0.17700
F2398       F  0.03075383  0.41763561  0.21836620    -0.20200
F2399       F  0.54970194  0.43753235  0.19472494    -0.21300
F2400       F  0.53225358  0.38170920  0.20426890    -0.18500
F2401       F  0.87378933  0.39750046  0.16707951    -0.18600
F2402       F  0.85091842  0.34146399  0.17816769    -0.22400
F2403       F  0.87966342  0.35650398  0.15005948    -0.24100
C2404       C  0.77229330  0.38065996  0.93486122    -0.10900
C2405       C  0.80438352  0.40883049  0.92710013     0.11700
C2406       C  0.80247584  0.42252101  0.90931506    -0.02700
C2407       C  0.76903015  0.40482337  0.89916557    -0.05400
C2408       C  0.73690644  0.37493518  0.90654795    -0.16200
C2409       C  0.73777344  0.36831664  0.92625085     0.02700
C2410       C  0.83749159  0.42639489  0.93940280     0.12700
C2411       C  0.83520130  0.45621346  0.90146352     0.63300
H2412       H  0.76766315  0.41552088  0.88570647     0.12700
C2413       C  0.70685116  0.36231118  0.93996791     0.55400
H2414       H  0.77325989  0.37277797  0.94923462     0.08500
C2415       C  0.83816358  0.44601072  0.95558315    -0.05300
C2416       C  0.86724203  0.45613187  0.96840760    -0.06000
C2417       C  0.89675575  0.44934872  0.96516187    -0.15600
C2418       C  0.89667397  0.43056001  0.94872485    -0.01200
C2419       C  0.86657699  0.41890256  0.93629079    -0.08800
C2420       C  0.80892500  0.45671260  0.96019324     0.65500
H2421       H  0.86744239  0.47055005  0.98092404     0.11000
C2422       C  0.92736788  0.42159616  0.94458909     0.63900
H2423       H  0.86516924  0.40327548  0.92409665     0.08300
F2424       F  0.68330335  0.37293025  0.93218842    -0.19100
F2425       F  0.72098241  0.38309090  0.95584759    -0.15400
F2426       F  0.68768786  0.32683769  0.94578815    -0.18800
F2427       F  0.86495738  0.45032369  0.89873828    -0.22200
F2428       F  0.84515454  0.48420173  0.91388754    -0.23700
F2429       F  0.82694106  0.46648252  0.88452362    -0.17700
F2430       F  0.91879764  0.39847763  0.92958066    -0.20200
F2431       F  0.93302146  0.40515576  0.96002104    -0.21300
F2432       F  0.95981925  0.45268362  0.94023421    -0.18500
F2433       F  0.82607561  0.49260723  0.96510610    -0.18600
F2434       F  0.78779964  0.43631834  0.97521356    -0.22400
F2435       F  0.78572022  0.45234125  0.94538133    -0.24100
C2436       C  0.58098560  0.17247003  0.95943227    -0.10900
C2437       C  0.59895497  0.16893095  0.94354432     0.11700
C2438       C  0.60384289  0.13852973  0.94158005    -0.02700
C2439       C  0.58757643  0.11091047  0.95492470    -0.05400
C2440       C  0.56791936  0.11339512  0.97041663    -0.16200
C2441       C  0.56537524  0.14512059  0.97311655     0.02700
C2442       C  0.61304629  0.19776317  0.92922336     0.12700
C2443       C  0.62614689  0.13534039  0.92546315     0.63300
H2444       H  0.59017192  0.08695048  0.95337395     0.12700
C2445       C  0.54556432  0.14982599  0.98994410     0.55400
H2446       H  0.57896169  0.19675776  0.96085947     0.08500
C2447       C  0.59017100  0.19940247  0.91501199    -0.05300
C2448       C  0.60620918  0.22686816  0.90140168    -0.06000
C2449       C  0.64355903  0.25384122  0.90247040    -0.15600
C2450       C  0.66665144  0.25027506  0.91607027    -0.01200
C2451       C  0.65063964  0.22293283  0.92952463    -0.08800
C2452       C  0.54882424  0.17323344  0.91482760     0.65500
H2453       H  0.58890199  0.22939109  0.89081093     0.11000
C2454       C  0.70843074  0.27223804  0.91643505     0.63900
H2455       H  0.66795102  0.22070296  0.94025418     0.08300
F2456       F  0.54414936  0.18159702  0.98894178    -0.19100
F2457       F  0.56412686  0.15055957  0.00614909    -0.15400
F2458       F  0.50955093  0.12174694  0.99094299    -0.18800
F2459       F  0.66280505  0.16173547  0.92686172    -0.22200
F2460       F  0.61211413  0.13927184  0.90865007    -0.23700
F2461       F  0.62509019  0.10236615  0.92541957    -0.17700
F2462       F  0.71987360  0.28947328  0.93341491    -0.20200
F2463       F  0.72231622  0.29731789  0.90237137    -0.21300
F2464       F  0.72329354  0.24954412  0.91425782    -0.18500
F2465       F  0.53153331  0.17942103  0.89981466    -0.18600
F2466       F  0.53258285  0.17683026  0.93104343    -0.22400
F2467       F  0.54271579  0.13836774  0.91375932    -0.24100
C2468       C  0.60931117  0.42269731  0.96331725    -0.10900
C2469       C  0.58931400  0.40653646  0.94709377     0.11700
C2470       C  0.55447103  0.40420869  0.94396461    -0.02700
C2471       C  0.54190734  0.42077266  0.95673741    -0.05400
C2472       C  0.56211112  0.43767839  0.97287485    -0.16200
C2473       C  0.59598589  0.43800951  0.97656254     0.02700
C2474       C  0.60402115  0.38961169  0.93424240     0.12700
C2475       C  0.53016406  0.38321500  0.92761229     0.63300
H2476       H  0.51561586  0.41997566  0.95442529     0.12700
C2477       C  0.61817792  0.45470615  0.99414138     0.55400
H2478       H  0.63526734  0.42277060  0.96557282     0.08500
C2479       C  0.62678621  0.40807572  0.91876964    -0.05300
C2480       C  0.63597480  0.38862891  0.90602221    -0.06000
C2481       C  0.62370667  0.35170215  0.90857204    -0.15600
C2482       C  0.60268819  0.33410387  0.92498582    -0.01200
C2483       C  0.59361120  0.35370395  0.93753923    -0.08800
C2484       C  0.64253147  0.44832153  0.91632533     0.65500
H2485       H  0.65402331  0.40247629  0.89424738     0.11000
C2486       C  0.58830523  0.29510281  0.93020526     0.63900
H2487       H  0.57710008  0.34051061  0.94990823     0.08300
F2488       F  0.65174178  0.45479561  0.99397682    -0.19100
F2489       F  0.59834872  0.43527129  0.00968961    -0.15400
F2490       F  0.62545919  0.48990066  0.99566655    -0.18800
F2491       F  0.52047109  0.34739025  0.92947518    -0.22200
F2492       F  0.54890655  0.39627901  0.91083937    -0.23700
F2493       F  0.49780809  0.38536553  0.92690374    -0.17700
F2494       F  0.60730329  0.29287711  0.94559546    -0.20200
F2495       F  0.59201877  0.27594294  0.91596152    -0.21300
F2496       F  0.55094107  0.27913861  0.93465212    -0.18500
F2497       F  0.66395753  0.46106084  0.90023253    -0.18600
F2498       F  0.66460475  0.46578182  0.93149024    -0.22400
F2499       F  0.61424704  0.45675809  0.91525094    -0.24100
C2500       C  0.56942832  0.44484157  0.85321632    -0.10900
C2501       C  0.55775727  0.41019624  0.84627637     0.11700
C2502       C  0.52853568  0.39579181  0.83315153    -0.02700
C2503       C  0.51369287  0.41747045  0.82667855    -0.05400
C2504       C  0.52888751  0.45398222  0.83150319    -0.16200
C2505       C  0.55588177  0.46730059  0.84603792     0.02700
C2506       C  0.57700858  0.38999963  0.85291721     0.12700
C2507       C  0.51390190  0.35813800  0.82542852     0.63300
H2508       H  0.49103140  0.40644638  0.81686297     0.12700
C2509       C  0.56253074  0.99564033  0.85681580     0.55400
H2510       H  0.59045499  0.45461195  0.86396149     0.08500
C2511       C  0.61263715  0.39804065  0.84630679    -0.05300
C2512       C  0.62961733  0.37902502  0.85365229    -0.06000
C2513       C  0.61268270  0.35139513  0.86682253    -0.15600
C2514       C  0.57521934  0.34102278  0.87208350    -0.01200
C2515       C  0.55916147  0.36186749  0.86587430    -0.08800
C2516       C  0.63180286  0.42511751  0.83075202     0.65500
H2517       H  0.65703254  0.38602500  0.84914379     0.11000
C2518       C  0.54950585  0.30726774  0.88294961     0.63900
H2519       H  0.53158904  0.35516706  0.87071213     0.08300
F2520       F  0.58926798  0.00245630  0.87020557    -0.19100
F2521       F  0.53164790  0.99261733  0.86603464    -0.15400
F2522       F  0.57651273  0.02460099  0.84465708    -0.18800
F2523       F  0.49736606  0.33305746  0.83961012    -0.22200
F2524       F  0.54261460  0.35444292  0.81773489    -0.23700
F2525       F  0.98539913  0.34716438  0.81188335    -0.17700
F2526       F  0.53925517  0.31646131  0.89959737    -0.20200
F2527       F  0.56492180  0.28570917  0.88668609    -0.21300
F2528       F  0.51788176  0.28721299  0.87254083    -0.18500
F2529       F  0.66625198  0.42905378  0.82631005    -0.18600
F2530       F  0.63682914  0.45845873  0.83580596    -0.22400
F2531       F  0.61000453  0.41306698  0.81501581    -0.24100
C2532       C  0.59680710  0.20857405  0.83928438    -0.10900
C2533       C  0.60825142  0.18455620  0.84583266     0.11700
C2534       C  0.63859926  0.19727387  0.85824480    -0.02700
C2535       C  0.65527501  0.23325933  0.86425225    -0.05400
C2536       C  0.64082823  0.25630765  0.85977125    -0.16200
C2537       C  0.61183821  0.24402448  0.84617259     0.02700
C2538       C  0.58825368  0.14637746  0.83923993     0.12700
C2539       C  0.65267474  0.17267385  0.86565924     0.63300
H2540       H  0.67880182  0.24314986  0.87354959     0.12700
C2541       C  0.59546341  0.26679782  0.83898463     0.55400
H2542       H  0.57497967  0.19870450  0.82895999     0.08500
C2543       C  0.55223532  0.12100683  0.84558330    -0.05300
C2544       C  0.53550276  0.08550352  0.83869751    -0.06000
C2545       C  0.55336569  0.07394956  0.82597380    -0.15600
C2546       C  0.59100446  0.09913926  0.82105793    -0.01200
C2547       C  0.60668684  0.13498628  0.82697175    -0.08800
C2548       C  0.53173004  0.13129346  0.85975687     0.65500
H2549       H  0.01242219  0.06745022  0.84508011     0.11000
C2550       C  0.61728684  0.09026892  0.81053308     0.63900
H2551       H  0.63440748  0.15430192  0.82229660     0.08300
F2552       F  0.56527783  0.24764876  0.82748243    -0.19100
F2553       F  0.62156238  0.29551685  0.82866185    -0.15400
F2554       F  0.58327137  0.27878637  0.85374994    -0.18800
F2555       F  0.67132885  0.16566443  0.85162820    -0.22200
F2556       F  0.62333566  0.14059556  0.87189282    -0.23700
F2557       F  0.67671783  0.18796042  0.88048786    -0.17700
F2558       F  0.62953766  0.11082485  0.79436536    -0.20200
F2559       F  0.60140338  0.05476693  0.80592846    -0.21300
F2560       F  0.64766125  0.09822960  0.82164409    -0.18500
F2561       F  0.00761687  0.10131862  0.87013144    -0.18600
F2562       F  0.52347295  0.15635888  0.85206996    -0.22400
F2563       F  0.55380537  0.14573150  0.87525897    -0.24100
C2564       C  0.87637668  0.44900707  0.84789468    -0.10900
C2565       C  0.85315060  0.41495323  0.84049305     0.11700
C2566       C  0.86701194  0.40249371  0.82573194    -0.02700
C2567       C  0.90405208  0.42419422  0.81955998    -0.05400
C2568       C  0.92690932  0.45938077  0.82624205    -0.16200
C2569       C  0.91240062  0.47181173  0.84081820     0.02700
C2570       C  0.81396847  0.39542630  0.84774347     0.12700
C2571       C  0.84392510  0.36762317  0.81533724     0.63300
H2572       H  0.91447172  0.41438273  0.80835029     0.12700
C2573       C  0.93563722  0.01371961  0.84802663     0.55400
H2574       H  0.86532546  0.45817212  0.85904097     0.08500
C2575       C  0.80031396  0.36638108  0.86069325    -0.05300
C2576       C  0.76329547  0.35127597  0.86712825    -0.06000
C2577       C  0.73991728  0.36563555  0.86259272    -0.15600
C2578       C  0.75380651  0.39446908  0.84932075    -0.01200
C2579       C  0.79026391  0.40851362  0.84219404    -0.08800
C2580       C  0.82349073  0.35102441  0.86892454     0.65500
H2581       H  0.75325665  0.32885982  0.87662027     0.11000
C2582       C  0.73095057  0.41094786  0.84261285     0.63900
H2583       H  0.80113128  0.43077570  0.83240251     0.08300
F2584       F  0.91117694  0.51813169  0.85937709    -0.19100
F2585       F  0.94997877  0.03693016  0.83287451    -0.15400
F2586       F  0.96356319  0.01786279  0.85999658    -0.18800
F2587       F  0.80766072  0.34872574  0.82158751    -0.22200
F2588       F  0.85988995  0.34583512  0.81728095    -0.23700
F2589       F  0.84339912  0.37525003  0.79652515    -0.17700
F2590       F  0.75114278  0.44114485  0.83151181    -0.20200
F2591       F  0.71772483  0.42126528  0.85786344    -0.21300
F2592       F  0.70248781  0.38594981  0.83182687    -0.18500
F2593       F  0.82371367  0.35396599  0.88822447    -0.18600
F2594       F  0.85982352  0.36826133  0.86270775    -0.22400
F2595       F  0.80778258  0.31507432  0.86434395    -0.24100
C2596       C  0.89095283  0.44882385  0.75597828    -0.10900
C2597       C  0.86131404  0.44959147  0.76477435     0.11700
C2598       C  0.86616263  0.46488877  0.78264562    -0.02700
C2599       C  0.90117355  0.47863188  0.79119227    -0.05400
C2600       C  0.93096841  0.47539192  0.78320907    -0.16200
C2601       C  0.92658170  0.46451146  0.76379085     0.02700
C2602       C  0.82617578  0.43452025  0.75411139     0.12700
C2603       C  0.83406782  0.46514833  0.79293081     0.63300
H2604       H  0.90519852  0.49199460  0.80443871     0.12700
C2605       C  0.96674084  0.98522729  0.75052705     0.55400
H2606       H  0.88598598  0.43714083  0.74213262     0.08500
C2607       C  0.82184884  0.45328678  0.73871072    -0.05300
C2608       C  0.79194232  0.43453648  0.72650661    -0.06000
C2609       C  0.76663615  0.39795606  0.72916384    -0.15600
C2610       C  0.77036153  0.37943705  0.74488696    -0.01200
C2611       C  0.80027735  0.39824347  0.75710230    -0.08800
C2612       C  0.84917716  0.49268683  0.73485965     0.65500
H2613       H  0.78841000  0.44819414  0.71450746     0.11000
C2614       C  0.74422432  0.33960156  0.74825536     0.63900
H2615       H  0.80470424  0.38434159  0.76869217     0.08300
F2616       F  0.95443835  0.98519199  0.73247768    -0.19100
F2617       F  0.97496042  0.45306970  0.75341344    -0.15400
F2618       F  0.98932183  0.02101166  0.75480382    -0.18800
F2619       F  0.80647366  0.43017738  0.79611234    -0.22200
F2620       F  0.81973451  0.48269558  0.78237578    -0.23700
F2621       F  0.84481170  0.48226801  0.81002156    -0.17700
F2622       F  0.75608165  0.32609187  0.76275866    -0.20200
F2623       F  0.74212264  0.32041972  0.73229510    -0.21300
F2624       F  0.70928927  0.33407950  0.75288723    -0.18500
F2625       F  0.83831354  0.50605003  0.71987714    -0.18600
F2626       F  0.86278065  0.99823887  0.71968888    -0.22400
F2627       F  0.85178226  0.51300462  0.75036916    -0.24100
C2628       C  0.57742448  0.10591132  0.75658036    -0.10900
C2629       C  0.56618545  0.13093981  0.76090302     0.11700
C2630       C  0.54269992  0.12505642  0.77647646    -0.02700
C2631       C  0.53184267  0.09400638  0.78757398    -0.05400
C2632       C  0.54443599  0.06921528  0.78386039    -0.16200
C2633       C  0.56747444  0.07538078  0.76768015     0.02700
C2634       C  0.58065132  0.16317111  0.74868515     0.12700
C2635       C  0.52926893  0.15145562  0.78119917     0.63300
H2636       H  0.01472484  0.08933165  0.80029687     0.12700
C2637       C  0.58412814  0.05259917  0.76121516     0.55400
H2638       H  0.59522407  0.11087723  0.74443089     0.08500
C2639       C  0.61548551  0.19403505  0.75180175    -0.05300
C2640       C  0.62969515  0.22122685  0.73809555    -0.06000
C2641       C  0.61103011  0.21825721  0.72125986    -0.15600
C2642       C  0.57642008  0.18725959  0.71802371    -0.01200
C2643       C  0.56178564  0.16016564  0.73190344    -0.08800
C2644       C  0.63935104  0.19976913  0.76896817     0.65500
H2645       H  0.65603573  0.24518827  0.74054194     0.11000
C2646       C  0.55476575  0.18305593  0.70021706     0.63900
H2647       H  0.53575513  0.13586381  0.72960656     0.08300
F2648       F  0.62233942  0.07337317  0.76022609    -0.19100
F2649       F  0.57091540  0.03911799  0.74362372    -0.15400
F2650       F  0.57609689  0.02457587  0.77293096    -0.18800
F2651       F  0.00396701  0.14867696  0.76630374    -0.22200
F2652       F  0.55924037  0.18508021  0.78429067    -0.23700
F2653       F  0.00529571  0.13954845  0.79716255    -0.17700
F2654       F  0.57454973  0.18130459  0.68496998    -0.20200
F2655       F  0.54861894  0.21200966  0.69803189    -0.21300
F2656       F  0.52066906  0.15203681  0.70053524    -0.18500
F2657       F  0.64615936  0.23140271  0.77758071    -0.18600
F2658       F  0.67281698  0.20265230  0.76339620    -0.22400
F2659       F  0.62339935  0.17242586  0.78208456    -0.24100
C2660       C  0.57016184  0.43746320  0.77002493    -0.10900
C2661       C  0.53988515  0.41250297  0.75975155     0.11700
C2662       C  0.50361112  0.40465973  0.76460019    -0.02700
C2663       C  0.49905372  0.42398669  0.77923804    -0.05400
C2664       C  0.52954118  0.45117400  0.78867070    -0.16200
C2665       C  0.56591362  0.45683509  0.78468000     0.02700
C2666       C  0.54795272  0.39565652  0.74383293     0.12700
C2667       C  0.47036562  0.37790484  0.75352740     0.63300
H2668       H  0.97083055  0.41600310  0.78262950     0.12700
C2669       C  0.60380396  0.98550476  0.79605535     0.55400
H2670       H  0.59772553  0.44247417  0.76616203     0.08500
C2671       C  0.56480738  0.41499368  0.72714715    -0.05300
C2672       C  0.58057120  0.40074573  0.71477432    -0.06000
C2673       C  0.58019266  0.36834033  0.71872659    -0.15600
C2674       C  0.56036152  0.34748817  0.73457198    -0.01200
C2675       C  0.54488187  0.36190316  0.74702222    -0.08800
C2676       C  0.56852779  0.45127096  0.72206452     0.65500
H2677       H  0.59519786  0.41617761  0.70243621     0.11000
C2678       C  0.55632788  0.31073800  0.73879537     0.63900
H2679       H  0.53231896  0.34790123  0.76001020     0.08300
F2680       F  0.62615349  0.01577639  0.78551836    -0.19100
F2681       F  0.62493531  0.96955593  0.80012462    -0.15400
F2682       F  0.59489072  0.99542695  0.81270329    -0.18800
F2683       F  0.46722027  0.34415914  0.75483150    -0.22200
F2684       F  0.47472899  0.38842915  0.73491687    -0.23700
F2685       F  0.93799863  0.36975428  0.76082842    -0.17700
F2686       F  0.58909143  0.31456181  0.74596982    -0.20200
F2687       F  0.54741054  0.29042372  0.72265690    -0.21300
F2688       F  0.52847682  0.29199612  0.75183485    -0.18500
F2689       F  0.55359949  0.44927941  0.70452048    -0.18600
F2690       F  0.60568598  0.47682802  0.72153642    -0.22400
F2691       F  0.55056818  0.46248569  0.73447001    -0.24100
C2692       C  0.78472306  0.25516471  0.42517072    -0.10900
C2693       C  0.75142314  0.25507722  0.42167471     0.11700
C2694       C  0.73386818  0.24346090  0.40413104    -0.02700
C2695       C  0.74911496  0.22971678  0.39102616    -0.05400
C2696       C  0.78219108  0.22911173  0.39460133    -0.16200
C2697       C  0.80109118  0.24317457  0.41176294     0.02700
C2698       C  0.73842543  0.27183318  0.43574733     0.12700
C2699       C  0.70028745  0.24719070  0.39896772     0.63300
H2700       H  0.73548023  0.21968039  0.37774892     0.12700
C2701       C  0.83919990  0.24741877  0.41571613     0.55400
H2702       H  0.79824020  0.26555887  0.43844601     0.08500
C2703       C  0.71277322  0.25198320  0.45009029    -0.05300
C2704       C  0.69882624  0.26973601  0.46136456    -0.06000
C2705       C  0.71201326  0.30694669  0.45962633    -0.15600
C2706       C  0.74226749  0.32728454  0.44734295    -0.01200
C2707       C  0.75382223  0.30916233  0.43501573    -0.08800
C2708       C  0.70057520  0.21257881  0.45354752     0.65500
H2709       H  0.67581255  0.25413882  0.47069196     0.11000
C2710       C  0.76354951  0.36786509  0.44739058     0.63900
H2711       H  0.77516954  0.32419692  0.42464845     0.08300
F2712       F  0.83634389  0.21421607  0.41919987    -0.19100
F2713       F  0.85538686  0.26876425  0.43118670    -0.15400
F2714       F  0.86256062  0.26358262  0.40054772    -0.18800
F2715       F  0.70990644  0.28312504  0.39889312    -0.22200
F2716       F  0.67201360  0.22900303  0.41177709    -0.23700
F2717       F  0.68701665  0.23351156  0.38139083    -0.17700
F2718       F  0.79990760  0.38043196  0.44166024    -0.20200
F2719       F  0.76448007  0.38042912  0.46528095    -0.21300
F2720       F  0.74733101  0.38131107  0.43523655    -0.18500
F2721       F  0.67670769  0.19896103  0.46876945    -0.18600
F2722       F  0.73130464  0.20870808  0.45718388    -0.22400
F2723       F  0.68268208  0.19241846  0.43804762    -0.24100
C2724       C  0.58000315  0.28665483  0.41295922    -0.10900
C2725       C  0.54961481  0.29184094  0.41600490     0.11700
C2726       C  0.54583182  0.30621278  0.43309294    -0.02700
C2727       C  0.57305412  0.31472294  0.44674149    -0.05400
C2728       C  0.60292995  0.30775886  0.44438319    -0.16200
C2729       C  0.60611450  0.29298663  0.42697296     0.02700
C2730       C  0.51828810  0.27344227  0.40313554     0.12700
C2731       C  0.51296286  0.31210276  0.43702017     0.63300
H2732       H  0.57123925  0.32750610  0.45941662     0.12700
C2733       C  0.63488357  0.28178275  0.42250693     0.55400
H2734       H  0.58171514  0.27504572  0.39975774     0.08500
C2735       C  0.51480238  0.28876584  0.38618415    -0.05300
C2736       C  0.98094167  0.27209568  0.37867680    -0.06000
C2737       C  0.95465538  0.23641834  0.38308771    -0.15600
C2738       C  0.95970501  0.21940354  0.39909076    -0.01200
C2739       C  0.99003425  0.23947490  0.41065976    -0.08800
C2740       C  0.54464931  0.32560222  0.37964071     0.65500
H2741       H  0.97675075  0.28440150  0.36628851     0.11000
C2742       C  0.93387084  0.18001580  0.40385222     0.63900
H2743       H  0.99431935  0.22722840  0.42306310     0.08300
F2744       F  0.66491156  0.30967615  0.41356258    -0.19100
F2745       F  0.62033615  0.25228080  0.41079312    -0.15400
F2746       F  0.64622015  0.27178526  0.43833875    -0.18800
F2747       F  0.48034517  0.27976074  0.43646879    -0.22200
F2748       F  0.51156415  0.33506708  0.42375163    -0.23700
F2749       F  0.51524183  0.32708800  0.45446190    -0.17700
F2750       F  0.92787466  0.15918521  0.38808492    -0.20200
F2751       F  0.90039132  0.17547706  0.41054597    -0.21300
F2752       F  0.94863989  0.16754620  0.41748678    -0.18500
F2753       F  0.53511168  0.33590748  0.36306632    -0.18600
F2754       F  0.57740136  0.32492917  0.37667603    -0.22400
F2755       F  0.55050653  0.35117980  0.39296821    -0.24100
C2756       C  0.71131928  0.44795644  0.42686719    -0.10900
C2757       C  0.74854625  0.47095503  0.43079662     0.11700
C2758       C  0.76414301  0.46550015  0.44730872    -0.02700
C2759       C  0.74167066  0.43588812  0.45894598    -0.05400
C2760       C  0.70470202  0.41148658  0.45441271    -0.16200
C2761       C  0.68881210  0.41899495  0.43856853     0.02700
C2762       C  0.76771563  0.50222979  0.41804045     0.12700
C2763       C  0.80413423  0.48902023  0.45306765     0.63300
H2764       H  0.75349408  0.43128615  0.47146748     0.12700
C2765       C  0.64820635  0.39821440  0.43377903     0.55400
H2766       H  0.69958820  0.45326594  0.41447712     0.08500
C2767       C  0.78296317  0.49995091  0.40065541    -0.05300
C2768       C  0.79102228  0.03604786  0.38908610    -0.06000
C2769       C  0.78720783  0.06612855  0.39340345    -0.15600
C2770       C  0.77343330  0.06870334  0.41129888    -0.01200
C2771       C  0.76337473  0.04039975  0.42414145    -0.08800
C2772       C  0.78636546  0.46701689  0.39582423     0.65500
H2773       H  0.80170189  0.03473075  0.37540458     0.11000
C2774       C  0.76807647  0.10040443  0.41673606     0.63900
H2775       H  0.75142327  0.04092547  0.43757908     0.08300
F2776       F  0.64247924  0.37090082  0.42166373    -0.19100
F2777       F  0.63659724  0.42013627  0.42510485    -0.15400
F2778       F  0.62694283  0.38472518  0.44969952    -0.18800
F2779       F  0.80213712  0.03555845  0.45819903    -0.22200
F2780       F  0.82974228  0.01012382  0.44171721    -0.23700
F2781       F  0.82165453  0.46842344  0.45360776    -0.17700
F2782       F  0.74803551  0.09392027  0.43325087    -0.20200
F2783       F  0.74896726  0.10719944  0.40286577    -0.21300
F2784       F  0.80217345  0.13058714  0.41932779    -0.18500
F2785       F  0.80375770  0.47080101  0.37869751    -0.18600
F2786       F  0.75153873  0.43710841  0.39502416    -0.22400
F2787       F  0.80687456  0.46144256  0.40938888    -0.24100
C2788       C  0.76452065  0.22059330  0.60002077    -0.10900
C2789       C  0.78532587  0.25747699  0.59706098     0.11700
C2790       C  0.81350437  0.27097680  0.58327578    -0.02700
C2791       C  0.81837141  0.24627605  0.57209558    -0.05400
C2792       C  0.79787230  0.20871643  0.57512754    -0.16200
C2793       C  0.77033651  0.19589002  0.58963154     0.02700
C2794       C  0.77565400  0.28011807  0.60903275     0.12700
C2795       C  0.83833721  0.31112885  0.58066630     0.63300
H2796       H  0.83824921  0.25634008  0.56078056     0.12700
C2797       C  0.74585165  0.15667317  0.59421556     0.55400
H2798       H  0.74334592  0.21137152  0.61084730     0.08500
C2799       C  0.74762799  0.28863244  0.60389787    -0.05300
C2800       C  0.73174264  0.30004642  0.61784483    -0.06000
C2801       C  0.74221754  0.30243256  0.63661809    -0.15600
C2802       C  0.77126316  0.29568733  0.64170646    -0.01200
C2803       C  0.78778023  0.28479472  0.62771546    -0.08800
C2804       C  0.73207150  0.28488125  0.58429915     0.65500
H2805       H  0.70972411  0.30583013  0.61413674     0.11000
C2806       C  0.78315010  0.29818631  0.66195918     0.63900
H2807       H  0.80862963  0.27747395  0.63147102     0.08300
F2808       F  0.72706798  0.13895918  0.57838928    -0.19100
F2809       F  0.71934003  0.15091554  0.60774563    -0.15400
F2810       F  0.76735302  0.14282391  0.60117589    -0.18800
F2811       F  0.85618417  0.32592718  0.59729592    -0.22200
F2812       F  0.81752261  0.32715342  0.57558357    -0.23700
F2813       F  0.86501685  0.31884153  0.56695652    -0.17700
F2814       F  0.81080817  0.28903416  0.66413965    -0.20200
F2815       F  0.75315358  0.27511132  0.67293849    -0.21300
F2816       F  0.79645005  0.33296136  0.66821497    -0.18500
F2817       F  0.73848861  0.31820904  0.57802858    -0.18600
F2818       F  0.69422332  0.26183156  0.58485498    -0.22400
F2819       F  0.74748029  0.27176876  0.57147320    -0.24100
C2820       C  0.95574006  0.24699029  0.58691184    -0.10900
C2821       C  0.95788937  0.22363475  0.60005696     0.11700
C2822       C  0.92748246  0.18864590  0.60239188    -0.02700
C2823       C  0.89736554  0.17705535  0.59002349    -0.05400
C2824       C  0.89634222  0.19957730  0.57577298    -0.16200
C2825       C  0.92489327  0.23612054  0.57521275     0.02700
C2826       C  0.99065649  0.23824225  0.61250234     0.12700
C2827       C  0.92688736  0.16380175  0.61787588     0.63300
H2828       H  0.87478151  0.14971155  0.59101772     0.12700
C2829       C  0.92379953  0.26558122  0.56377502     0.55400
H2830       H  0.97808836  0.27456188  0.58619510     0.08500
C2831       C  0.52358491  0.23136280  0.60723001    -0.05300
C2832       C  0.55293327  0.24811838  0.62001232    -0.06000
C2833       C  0.54927363  0.26421055  0.63638559    -0.15600
C2834       C  0.51472362  0.26208988  0.64076675    -0.01200
C2835       C  0.98791740  0.25273610  0.62963109    -0.08800
C2836       C  0.52965105  0.21643236  0.58909854     0.65500
H2837       H  0.57953379  0.24996970  0.61699487     0.11000
C2838       C  0.50862983  0.27736064  0.65880359     0.63900
H2839       H  0.96183714  0.25155431  0.63322811     0.08300
F2840       F  0.95372654  0.28053157  0.55168504    -0.19100
F2841       F  0.92589444  0.29202892  0.57568779    -0.15400
F2842       F  0.89213455  0.25382576  0.55346221    -0.18800
F2843       F  0.92803374  0.17888543  0.63512433    -0.22200
F2844       F  0.45537814  0.14921196  0.61451635    -0.23700
F2845       F  0.89515131  0.13058803  0.61736000    -0.17700
F2846       F  0.03438067  0.31956911  0.66130447    -0.20200
F2847       F  0.52027826  0.26511482  0.67393309    -0.21300
F2848       F  0.47159597  0.26712214  0.66162175    -0.18500
F2849       F  0.56523725  0.22122011  0.58774334    -0.18600
F2850       F  0.52417674  0.23370319  0.57401026    -0.22400
F2851       F  0.50520042  0.18004420  0.58810415    -0.24100
C2852       C  0.76333029  0.01106483  0.62915414    -0.10900
C2853       C  0.74828071  0.00412324  0.61107994     0.11700
C2854       C  0.72036749  0.46650929  0.60550971    -0.02700
C2855       C  0.70698504  0.43915458  0.61915300    -0.05400
C2856       C  0.71033090  0.44691006  0.63832054    -0.16200
C2857       C  0.72679824  0.48311234  0.64430290     0.02700
C2858       C  0.76170850  0.03422974  0.59744252     0.12700
C2859       C  0.71730103  0.45683620  0.58487983     0.63300
H2860       H  0.69441903  0.41127303  0.61495861     0.12700
C2861       C  0.73110152  0.49452729  0.66466933     0.55400
H2862       H  0.78417527  0.03826389  0.63249100     0.08500
C2863       C  0.74442849  0.05550758  0.59537980    -0.05300
C2864       C  0.75779489  0.08229594  0.58140334    -0.06000
C2865       C  0.78953536  0.09101732  0.57065051    -0.15600
C2866       C  0.80485170  0.06738576  0.57186828    -0.01200
C2867       C  0.79136223  0.04030336  0.58571522    -0.08800
C2868       C  0.71315666  0.05097506  0.60839138     0.65500
H2869       H  0.74310325  0.09641854  0.57854108     0.11000
C2870       C  0.83317604  0.06672763  0.55868028     0.63900
H2871       H  0.80348177  0.02281838  0.58705969     0.08300
F2872       F  0.74341364  0.98009827  0.67563566    -0.19100
F2873       F  0.76811624  0.51774109  0.66825469    -0.15400
F2874       F  0.71876453  0.46613888  0.67719862    -0.18800
F2875       F  0.75222970  0.47046241  0.57699936    -0.22200
F2876       F  0.69810926  0.47102213  0.57554316    -0.23700
F2877       F  0.69876261  0.42001926  0.58223763    -0.17700
F2878       F  0.86456051  0.07327806  0.56856061    -0.20200
F2879       F  0.84303442  0.09113207  0.54437950    -0.21300
F2880       F  0.81842447  0.03303404  0.55068531    -0.18500
F2881       F  0.69980127  0.07410872  0.60375487    -0.18600
F2882       F  0.72599934  0.05812291  0.62657299    -0.22400
F2883       F  0.68390300  0.01633191  0.60762833    -0.24100
C2884       C  0.68870914  0.24369348  0.51287409    -0.10900
C2885       C  0.72610657  0.26076467  0.51782091     0.11700
C2886       C  0.74692175  0.29869916  0.51551038    -0.02700
C2887       C  0.73127059  0.31645723  0.50536034    -0.05400
C2888       C  0.69322658  0.29978625  0.50118239    -0.16200
C2889       C  0.67112727  0.26330058  0.50724730     0.02700
C2890       C  0.74362679  0.23833041  0.52325681     0.12700
C2891       C  0.78539454  0.32158888  0.52349539     0.63300
H2892       H  0.74925487  0.34366746  0.50074222     0.12700
C2893       C  0.62953417  0.24325846  0.50885768     0.55400
H2894       H  0.67233510  0.21478866  0.51452310     0.08500
C2895       C  0.72948395  0.21065755  0.53709513    -0.05300
C2896       C  0.74885361  0.19168173  0.54058470    -0.06000
C2897       C  0.78440379  0.20225054  0.53318426    -0.15600
C2898       C  0.79718800  0.22854618  0.51852799    -0.01200
C2899       C  0.77553324  0.24446032  0.51332445    -0.08800
C2900       C  0.69501926  0.20026739  0.54897764     0.65500
H2901       H  0.73707888  0.16960317  0.55036749     0.11000
C2902       C  0.83337778  0.24095078  0.50836647     0.63900
H2903       H  0.78431266  0.26345158  0.50177703     0.08300
F2904       F  0.61931120  0.22690872  0.52631063    -0.19100
F2905       F  0.61503598  0.21694244  0.49537227    -0.15400
F2906       F  0.61469603  0.26561680  0.50742490    -0.18800
F2907       F  0.81130614  0.33376026  0.50914171    -0.22200
F2908       F  0.79471312  0.30325917  0.53652323    -0.23700
F2909       F  0.78676823  0.35089848  0.53250116    -0.17700
F2910       F  0.84209769  0.26984525  0.49650160    -0.20200
F2911       F  0.83090570  0.21324381  0.49744717    -0.21300
F2912       F  0.86136417  0.25196531  0.52131306    -0.18500
F2913       F  0.70133802  0.19408396  0.56729852    -0.18600
F2914       F  0.66598767  0.16897404  0.54207637    -0.22400
F2915       F  0.68480447  0.22664282  0.54947774    -0.24100
C2916       C  0.72049061  0.45726372  0.51703180    -0.10900
C2917       C  0.71135224  0.48098039  0.50777177     0.11700
C2918       C  0.68678340  0.46812665  0.49239300    -0.02700
C2919       C  0.67170136  0.43176123  0.48732341    -0.05400
C2920       C  0.68384851  0.40888030  0.49518609    -0.16200
C2921       C  0.70864353  0.42207359  0.51053067     0.02700
C2922       C  0.74177974  0.02566064  0.51391105     0.12700
C2923       C  0.69104290  0.00016202  0.48083447     0.63300
H2924       H  0.65261797  0.42216550  0.47579229     0.12700
C2925       C  0.72625612  0.40123039  0.51861835     0.55400
H2926       H  0.73969277  0.46775783  0.52858877     0.08500
C2927       C  0.72532075  0.03851750  0.52711012    -0.05300
C2928       C  0.74623611  0.07373248  0.53389705    -0.06000
C2929       C  0.78303904  0.09678873  0.52822802    -0.15600
C2930       C  0.79728412  0.08590399  0.51282475    -0.01200
C2931       C  0.77697597  0.04988501  0.50661499    -0.08800
C2932       C  0.67809174  0.51448319  0.53303270     0.65500
H2933       H  0.73393088  0.08302008  0.54441093     0.11000
C2934       C  0.83241876  0.11171536  0.50226603     0.63900
H2935       H  0.78825403  0.04024180  0.49577152     0.08300
F2936       F  0.75089044  0.41967201  0.53281094    -0.19100
F2937       F  0.74571812  0.39560605  0.50454824    -0.15400
F2938       F  0.69951622  0.36881968  0.52593746    -0.18800
F2939       F  0.72395761  0.02602063  0.47288615    -0.22200
F2940       F  0.67645583  0.01683604  0.49186237    -0.23700
F2941       F  0.63946171  0.47769471  0.47947784    -0.17700
F2942       F  0.84229881  0.09420198  0.48903391    -0.20200
F2943       F  0.86188476  0.12893685  0.51426508    -0.21300
F2944       F  0.82650202  0.13684848  0.49283919    -0.18500
F2945       F  0.68723084  0.01626191  0.55405603    -0.18600
F2946       F  0.67290317  0.48363654  0.54209675    -0.22400
F2947       F  0.65344233  0.50500436  0.51838105    -0.24100
C2948       C  0.97002617  0.21740054  0.52961505    -0.10900
C2949       C  0.97480719  0.24034110  0.51454774     0.11700
C2950       C  0.94293578  0.23914706  0.50663016    -0.02700
C2951       C  0.90827003  0.21864588  0.51561018    -0.05400
C2952       C  0.90374305  0.19910871  0.53220420    -0.16200
C2953       C  0.93485467  0.19505920  0.53771753     0.02700
C2954       C  0.50957289  0.25909833  0.50217783     0.12700
C2955       C  0.94539445  0.25847532  0.48840368     0.63300
H2956       H  0.88432976  0.21703744  0.50925400     0.12700
C2957       C  0.93265935  0.16493108  0.54983613     0.55400
H2958       H  0.99382916  0.21535389  0.53440753     0.08500
C2959       C  0.53594703  0.29369201  0.50844065    -0.05300
C2960       C  0.57132917  0.31122392  0.49992479    -0.06000
C2961       C  0.58225861  0.29431194  0.48640816    -0.15600
C2962       C  0.55622117  0.25836556  0.48109707    -0.01200
C2963       C  0.51996323  0.24241803  0.48842344    -0.08800
C2964       C  0.52729728  0.31133435  0.52459952     0.65500
H2965       H  0.59119315  0.33822734  0.50411516     0.11000
C2966       C  0.56499121  0.23420980  0.46899084     0.63900
H2967       H  0.49993896  0.21539387  0.48422903     0.08300
F2968       F  0.95602656  0.17902128  0.56484046    -0.19100
F2969       F  0.94386752  0.14450880  0.53947415    -0.15400
F2970       F  0.89769210  0.14243874  0.55639667    -0.18800
F2971       F  0.95739674  0.24427616  0.47439216    -0.22200
F2972       F  0.97009808  0.29467870  0.49015728    -0.23700
F2973       F  0.91149184  0.25479638  0.48317606    -0.17700
F2974       F  0.55103525  0.20073841  0.47742741    -0.20200
F2975       F  0.60242207  0.24727032  0.46646343    -0.21300
F2976       F  0.54826046  0.22976326  0.45175184    -0.18500
F2977       F  0.55613010  0.34551200  0.52806542    -0.18600
F2978       F  0.52133125  0.29081566  0.54060559    -0.22400
F2979       F  0.49602513  0.31407100  0.52070460    -0.24100
C2980       C  0.82446411  0.65926390  0.56688857     0.46500
H2981       H  0.82475066  0.65869662  0.58236897    -0.02500
C2982       C  0.82438983  0.66140469  0.53054252     0.46500
H2983       H  0.82331052  0.66119495  0.51517775    -0.02500
C2984       C  0.86373948  0.67866375  0.55840343    -0.16200
C2985       C  0.80457740  0.62138908  0.55795047    -0.16000
C2986       C  0.80574616  0.68031528  0.55929717    -0.16400
C2987       C  0.86476541  0.67809387  0.53895803    -0.16300
C2988       C  0.80317481  0.62260379  0.53866476    -0.15900
C2989       C  0.80513136  0.68155992  0.53986577    -0.16200
C2990       C  0.66346678  0.84114326  0.49240522     0.46500
H2991       H  0.65656079  0.84020545  0.50746315    -0.02500
C2992       C  0.67925670  0.84452392  0.45692294     0.46500
H2993       H  0.68659179  0.84663097  0.44190844    -0.02500
C2994       C  0.68793067  0.82358213  0.48762755    -0.16200
C2995       C  0.62859792  0.82041980  0.47983957    -0.16000
C2996       C  0.68442769  0.88049662  0.48445615    -0.16400
C2997       C  0.69736451  0.82675454  0.46883087    -0.16300
C2998       C  0.63710351  0.82258245  0.46095173    -0.15900
C2999       C  0.69172928  0.88160013  0.46556577    -0.16200
Zn3000     Zn  0.72260001  0.86443514  0.67321708     1.49700
Zn3001     Zn  0.66462150  0.83111839  0.70632273     1.49400
Zn3002     Zn  0.64186328  0.85652577  0.66922282     1.49100
Zn3003     Zn  0.65025462  0.78567332  0.66901270     1.49500
O3004       O  0.66983035  0.83418920  0.67927510    -1.83100
O3005       O  0.75418900  0.88131706  0.69633748    -0.73700
O3006       O  0.63164983  0.84973238  0.71501505    -0.73600
O3007       O  0.67473960  0.89998216  0.65361463    -0.73100
O3008       O  0.71289788  0.85805379  0.71946344    -0.73800
O3009       O  0.73151744  0.90812850  0.65826697    -0.73300
O3010       O  0.61781890  0.87062778  0.68954865    -0.65200
O3011       O  0.60496210  0.77271393  0.65289708    -0.73300
O3012       O  0.64192249  0.78097453  0.71543066    -0.74100
O3013       O  0.59988093  0.82219906  0.65323265    -0.73500
O3014       O  0.63302078  0.74787609  0.69002850    -0.73900
O3015       O  0.69006028  0.78449652  0.65252242    -0.73800
O3016       O  0.74044288  0.83768431  0.65676950    -0.73600
C3017       C  0.74609482  0.87644095  0.71370299     0.78200
C3018       C  0.61500237  0.86447207  0.70708521     0.78600
C3019       C  0.70964209  0.91767290  0.65092943     0.77600
C3020       C  0.58817901  0.78992950  0.64818485     0.78000
C3021       C  0.63066956  0.75072393  0.70770902     0.79100
C3022       C  0.72413220  0.80686507  0.64919604     0.78200
C3023       C  0.50683112  0.49877458  0.78908801     0.46500
H3024       H  0.50945752  0.49709511  0.77427497    -0.02500
C3025       C  0.50507862  0.50286674  0.82507860     0.46500
H3026       H  0.50364591  0.50462269  0.84037834    -0.02500
C3027       C  0.96902165  0.98699324  0.79734713    -0.16200
C3028       C  0.52228528  0.97589167  0.79941429    -0.16000
C3029       C  0.53013181  0.53716815  0.79568565    -0.16400
C3030       C  0.96689535  0.98621490  0.81691962    -0.16300
C3031       C  0.51959216  0.97532110  0.81864647    -0.15900
C3032       C  0.53097820  0.53990542  0.81491271    -0.16200
C3033       C  0.66690432  0.82753558  0.86503069     0.46500
H3034       H  0.66836965  0.83057417  0.84973166    -0.02500
C3035       C  0.66544848  0.82195527  0.90116950     0.46500
H3036       H  0.66285773  0.81715559  0.91621301    -0.02500
C3037       C  0.63838363  0.83691023  0.87486649    -0.16200
C3038       C  0.65460968  0.78870116  0.87169759    -0.16000
C3039       C  0.70590354  0.85139123  0.87435181    -0.16400
C3040       C  0.63901841  0.83473975  0.89404306    -0.16300
C3041       C  0.65488628  0.78641295  0.89094247    -0.15900
C3042       C  0.70398972  0.85046451  0.89392576    -0.16200
C3043       C  0.83635321  0.66783229  0.12521669     0.46500
H3044       H  0.83568669  0.66789478  0.10964248    -0.02500
C3045       C  0.83762648  0.66770421  0.16158927     0.46500
H3046       H  0.83832864  0.66745299  0.17689996    -0.02500
C3047       C  0.79835207  0.64495395  0.13396935    -0.16200
C3048       C  0.86031863  0.65295125  0.13300394    -0.16000
C3049       C  0.85105155  0.70512584  0.13349067    -0.16400
C3050       C  0.79771472  0.64550917  0.15329262    -0.16300
C3051       C  0.86059163  0.65125356  0.15232486    -0.15900
C3052       C  0.85327922  0.70633890  0.15281131    -0.16200
C3053       C  0.99929047  0.99820800  0.19966609     0.46500
H3054       H  0.99913936  0.99904535  0.18412492    -0.02500
C3055       C  0.99918140  0.99657749  0.23601533     0.46500
H3056       H  0.99948606  0.99634233  0.25148734    -0.02500
C3057       C  0.97650477  0.50751518  0.20695223    -0.16200
C3058       C  0.98579862  0.95964622  0.20794584    -0.16000
C3059       C  0.53939655  0.52101084  0.20935110    -0.16400
C3060       C  0.97690034  0.50618265  0.22634972    -0.16300
C3061       C  0.98581201  0.95944012  0.22727107    -0.15900
C3062       C  0.53927809  0.51927961  0.22860856    -0.16200
Zn3063     Zn  0.81001740  0.61691531  0.33796111     1.49700
Zn3064     Zn  0.84250204  0.66946745  0.37307537     1.49400
Zn3065     Zn  0.88454432  0.69218540  0.33368059     1.49100
Zn3066     Zn  0.80806657  0.69278897  0.34086560     1.49500
O3067       O  0.83602814  0.66747212  0.34620738    -1.83100
O3068       O  0.79630411  0.58233404  0.36056318    -0.73700
O3069       O  0.89559520  0.69622582  0.37947244    -0.73600
O3070       O  0.89396114  0.65885173  0.31734282    -0.73100
O3071       O  0.82234773  0.62068952  0.38388459    -0.73800
O3072       O  0.84233449  0.60643546  0.31994960    -0.73300
O3073       O  0.92581407  0.71384807  0.35234904    -0.73900
O3074       O  0.83727800  0.73512133  0.32374758    -0.73300
O3075       O  0.81823560  0.69401498  0.38659288    -0.74100
O3076       O  0.88832255  0.73226881  0.31741531    -0.73500
O3077       O  0.79341584  0.71110950  0.36419904    -0.73900
O3078       O  0.76342788  0.66038925  0.32598970    -0.73800
O3079       O  0.76426305  0.60858784  0.32332828    -0.73600
C3080       C  0.80400208  0.58879389  0.37792812     0.78200
C3081       C  0.92553181  0.71243688  0.37014166     0.78600
C3082       C  0.87490731  0.62576453  0.31323055     0.77600
C3083       C  0.86803807  0.74684043  0.31512796     0.78000
C3084       C  0.80051873  0.70993213  0.38148534     0.79100
C3085       C  0.75034297  0.62882671  0.31945758     0.78200
Zn3086     Zn  0.00569298  0.99818510  0.98587645     1.49700
Zn3087     Zn  0.52937030  0.54813969  0.02142200     1.49400
Zn3088     Zn  0.94818767  0.97137615  0.02033987     1.49100
Zn3089     Zn  0.52572012  0.97106881  0.02038465     1.49500
O3090       O  0.00081333  0.99668162  0.01292932    -1.83100
O3091       O  0.53290510  0.54806037  0.97536247    -0.73700
O3092       O  0.99306099  0.55767602  0.03772129    -0.73600
O3093       O  0.91527091  0.95629563  0.99719005    -0.73100
O3094       O  0.54950928  0.58381053  0.99996704    -0.73800
O3095       O  0.95642088  0.97553516  0.97387879    -0.73300
O3096       O  0.94018808  0.50619963  0.03597548    -0.73900
O3097       O  0.99111759  0.93019923  0.03948398    -0.73300
O3098       O  0.57114817  0.55671734  0.03857569    -0.74100
O3099       O  0.93643634  0.92773854  0.03664683    -0.73500
O3100       O  0.57150860  0.50475366  0.03933833    -0.73900
O3101       O  0.54576815  0.95287922  0.99965564    -0.73800
O3102       O  0.53297818  0.97542131  0.97448771    -0.73600
C3103       C  0.54823530  0.57936244  0.98233322     0.78200
C3104       C  0.95903053  0.53813645  0.04208699     0.78600
C3105       C  0.92315940  0.95990643  0.97972131     0.77600
C3106       C  0.95686124  0.91594499  0.04364502     0.78000
C3107       C  0.58427451  0.53711529  0.04457834     0.79100
C3108       C  0.54673340  0.95758579  0.98200795     0.78200
C3109       C  0.63232214  0.55293276  0.25383246    -0.10900
C3110       C  0.63033921  0.57642614  0.26670643     0.11700
C3111       C  0.60076042  0.58408785  0.26588129    -0.02700
C3112       C  0.57139391  0.56420767  0.25347095    -0.05400
C3113       C  0.57245049  0.53935452  0.24087647    -0.16200
C3114       C  0.60392634  0.53388285  0.24103724     0.02700
C3115       C  0.65939274  0.59117261  0.28121886     0.12700
C3116       C  0.60155618  0.61451489  0.27720329     0.63300
H3117       H  0.54777814  0.56874443  0.25309518     0.12700
C3118       C  0.60798552  0.01490028  0.23109643     0.55400
H3119       H  0.65584019  0.54817203  0.25439412     0.08500
C3120       C  0.65571294  0.57230240  0.29820806    -0.05300
C3121       C  0.68590453  0.58564577  0.31057133    -0.06000
C3122       C  0.71943252  0.61641948  0.30614431    -0.15600
C3123       C  0.72358005  0.63443905  0.28880267    -0.01200
C3124       C  0.69311912  0.62161278  0.27667424    -0.08800
C3125       C  0.62050955  0.53756016  0.30290943     0.65500
H3126       H  0.68376454  0.57195650  0.32371519     0.11000
C3127       C  0.76057582  0.66594251  0.28274108     0.63900
H3128       H  0.69561736  0.63464657  0.26327173     0.08300
F3129       F  0.61671640  0.99391268  0.24262152    -0.19100
F3130       F  0.63808203  0.03534976  0.21957879    -0.15400
F3131       F  0.57865705  0.99205500  0.22031439    -0.18800
F3132       F  0.63229898  0.64647382  0.27196731    -0.22200
F3133       F  0.60364557  0.60889472  0.29611745    -0.23700
F3134       F  0.57030672  0.61791192  0.27421248    -0.17700
F3135       F  0.78807554  0.65635421  0.28387491    -0.20200
F3136       F  0.76954126  0.69509067  0.29417527    -0.21300
F3137       F  0.75974287  0.67647736  0.26446092    -0.18500
F3138       F  0.62277904  0.52370648  0.32012018    -0.18600
F3139       F  0.61434899  0.51203891  0.28946515    -0.22400
F3140       F  0.59048001  0.54346793  0.30347834    -0.24100
C3141       C  0.88891624  0.83516498  0.29102458    -0.10900
C3142       C  0.91053730  0.83510582  0.27587768     0.11700
C3143       C  0.91692761  0.80572419  0.27322985    -0.02700
C3144       C  0.90204458  0.77744467  0.28631036    -0.05400
C3145       C  0.88060387  0.77733596  0.30168758    -0.16200
C3146       C  0.87302753  0.80632204  0.30389107     0.02700
C3147       C  0.92847288  0.86721589  0.26361243     0.12700
C3148       C  0.93948679  0.80433995  0.25666119     0.63300
H3149       H  0.90707788  0.75494763  0.28456671     0.12700
C3150       C  0.84895397  0.80740405  0.31975886     0.55400
H3151       H  0.88476770  0.85821723  0.29268301     0.08500
C3152       C  0.91048492  0.87192220  0.24797687    -0.05300
C3153       C  0.93114914  0.90086188  0.23571686    -0.06000
C3154       C  0.96838882  0.92623306  0.23922019    -0.15600
C3155       C  0.98586524  0.92168977  0.25534682    -0.01200
C3156       C  0.96520575  0.89255285  0.26741467    -0.08800
C3157       C  0.86927463  0.84764666  0.24489654     0.65500
H3158       H  0.91756343  0.90507987  0.22382831     0.11000
C3159       C  0.02625072  0.94585685  0.26016474     0.63900
H3160       H  0.97819044  0.88872748  0.27973841     0.08300
F3161       F  0.84812369  0.83949737  0.32002061    -0.19100
F3162       F  0.86251051  0.80359917  0.33680471    -0.15400
F3163       F  0.81292169  0.77998004  0.31761394    -0.18800
F3164       F  0.97529841  0.83265482  0.25742717    -0.22200
F3165       F  0.92349167  0.80651455  0.24009009    -0.23700
F3166       F  0.94134467  0.77276822  0.25646591    -0.17700
F3167       F  0.04153028  0.92571926  0.26726385    -0.20200
F3168       F  0.02912792  0.97048058  0.27350114    -0.21300
F3169       F  0.04684858  0.96373957  0.24466835    -0.18500
F3170       F  0.85721348  0.85680135  0.22876974    -0.18600
F3171       F  0.84967795  0.85067384  0.25988116    -0.22400
F3172       F  0.86128820  0.81227363  0.24341820    -0.24100
C3173       C  0.92448075  0.52476692  0.26593406    -0.10900
C3174       C  0.93306052  0.56001487  0.26165506     0.11700
C3175       C  0.95625354  0.57778102  0.24614251    -0.02700
C3176       C  0.96993462  0.55920060  0.23529977    -0.05400
C3177       C  0.96067215  0.52326955  0.23910987    -0.16200
C3178       C  0.93729973  0.50563550  0.25492372     0.02700
C3179       C  0.91795320  0.57766603  0.27420555     0.12700
C3180       C  0.96701067  0.61640403  0.24127500     0.63300
H3181       H  0.48958300  0.57757698  0.22625299     0.12700
C3182       C  0.92371267  0.46649135  0.26007067     0.55400
H3183       H  0.90723627  0.51225622  0.27814909     0.08500
C3184       C  0.88136834  0.57203723  0.27241053    -0.05300
C3185       C  0.86851380  0.58852475  0.28532304    -0.06000
C3186       C  0.89072909  0.60959712  0.30010865    -0.15600
C3187       C  0.92695654  0.61412070  0.30222355    -0.01200
C3188       C  0.93998633  0.59821947  0.28907979    -0.08800
C3189       C  0.85561528  0.54762944  0.25735860     0.65500
H3190       H  0.84072253  0.58476475  0.28408637     0.11000
C3191       C  0.95123668  0.63424578  0.31870899     0.63900
H3192       H  0.96749870  0.60129852  0.29042115     0.08300
F3193       F  0.90932299  0.44538038  0.24456209    -0.19100
F3194       F  0.88579116  0.95302302  0.27118465    -0.15400
F3195       F  0.95202430  0.46195985  0.26733548    -0.18800
F3196       F  0.98801038  0.63874009  0.25555280    -0.22200
F3197       F  0.93565122  0.61979657  0.23895783    -0.23700
F3198       F  0.49164052  0.63375123  0.22736015    -0.17700
F3199       F  0.93160960  0.62106202  0.33527606    -0.20200
F3200       F  0.96258679  0.67048162  0.31706592    -0.21300
F3201       F  0.98262662  0.63042768  0.31964256    -0.18500
F3202       F  0.82263690  0.54864311  0.25686187    -0.18600
F3203       F  0.84741933  0.51259810  0.26092202    -0.22400
F3204       F  0.87218759  0.55787415  0.23989860    -0.24100
C3205       C  0.94138396  0.85424827  0.08560171    -0.10900
C3206       C  0.90649771  0.82533682  0.08154330     0.11700
C3207       C  0.88724911  0.82669626  0.06546976    -0.02700
C3208       C  0.90465125  0.85683799  0.05347238    -0.05400
C3209       C  0.94045290  0.88519853  0.05704310    -0.16200
C3210       C  0.95908199  0.88413803  0.07355571     0.02700
C3211       C  0.89151048  0.79384583  0.09439067     0.12700
C3212       C  0.84857799  0.79656121  0.06105565     0.63300
H3213       H  0.89052184  0.85832358  0.04103927     0.12700
C3214       C  0.99720945  0.91439505  0.07875726     0.55400
H3215       H  0.95505369  0.85269018  0.09820984     0.08500
C3216       C  0.90450210  0.76864602  0.09388109    -0.05300
C3217       C  0.89087294  0.74076956  0.10721946    -0.06000
C3218       C  0.86369608  0.73637736  0.12043338    -0.15600
C3219       C  0.84892456  0.76031440  0.12005397    -0.01200
C3220       C  0.86467978  0.78982413  0.10767402    -0.08800
C3221       C  0.93234738  0.77092615  0.07921518     0.65500
H3222       H  0.90139637  0.72193214  0.10742747     0.11000
C3223       C  0.81562313  0.75530502  0.13137408     0.63900
H3224       H  0.85491237  0.80928097  0.10788812     0.08300
F3225       F  0.00731132  0.90993746  0.09662948    -0.19100
F3226       F  0.99741816  0.94694970  0.07820362    -0.15400
F3227       F  0.02351302  0.91528388  0.06640405    -0.18800
F3228       F  0.82399108  0.79461094  0.07479779    -0.22200
F3229       F  0.84845196  0.76408666  0.06028495    -0.23700
F3230       F  0.83609719  0.80200713  0.04402921    -0.17700
F3231       F  0.82678758  0.78201123  0.14465864    -0.20200
F3232       F  0.79749734  0.72235260  0.14016374    -0.21300
F3233       F  0.79036668  0.75772079  0.11960732    -0.18500
F3234       F  0.93873217  0.74193407  0.08033337    -0.18600
F3235       F  0.96578906  0.80189861  0.08164251    -0.22400
F3236       F  0.91916053  0.77127837  0.06149811    -0.24100
C3237       C  0.64195194  0.57973847  0.08774221    -0.10900
C3238       C  0.67517541  0.58056242  0.08280006     0.11700
C3239       C  0.67821278  0.56587416  0.06555626    -0.02700
C3240       C  0.64772106  0.55176487  0.05341048    -0.05400
C3241       C  0.61491937  0.55217816  0.05806209    -0.16200
C3242       C  0.61156137  0.56585129  0.07558848     0.02700
C3243       C  0.70639940  0.59733748  0.09602019     0.12700
C3244       C  0.71326744  0.56479649  0.06012930     0.63300
H3245       H  0.64927161  0.54043200  0.04010624     0.12700
C3246       C  0.57578260  0.56486090  0.08167628     0.55400
H3247       H  0.64024078  0.59048242  0.10119721     0.08500
C3248       C  0.72964967  0.63498744  0.09666331    -0.05300
C3249       C  0.75919115  0.64896574  0.10931812    -0.06000
C3250       C  0.76574355  0.62665951  0.12144395    -0.15600
C3251       C  0.74240637  0.58879757  0.12064235    -0.01200
C3252       C  0.71248155  0.57496953  0.10820426    -0.08800
C3253       C  0.72280296  0.66029387  0.08433906     0.65500
H3254       H  0.77725069  0.67774071  0.11007693     0.11000
C3255       C  0.74799703  0.56148569  0.13177760     0.63900
H3256       H  0.69412129  0.54617013  0.10761211     0.08300
F3257       F  0.56868197  0.58700486  0.07021891    -0.19100
F3258       F  0.57758671  0.57640623  0.09992937    -0.15400
F3259       F  0.54668886  0.53007604  0.08061953    -0.18800
F3260       F  0.71816567  0.54193380  0.07213449    -0.22200
F3261       F  0.74372458  0.59876368  0.06120548    -0.23700
F3262       F  0.71156508  0.55259093  0.04202728    -0.17700
F3263       F  0.71891923  0.54404213  0.14430282    -0.20200
F3264       F  0.78067674  0.57651023  0.14150917    -0.21300
F3265       F  0.74853579  0.53638669  0.11973499    -0.18500
F3266       F  0.75056086  0.69562059  0.08609414    -0.18600
F3267       F  0.68957221  0.65844506  0.08938950    -0.22400
F3268       F  0.72130072  0.65084224  0.06574308    -0.24100
C3269       C  0.90811360  0.55112611  0.08340734    -0.10900
C3270       C  0.91743972  0.58722482  0.08096952     0.11700
C3271       C  0.93961226  0.60692011  0.06542229    -0.02700
C3272       C  0.95172076  0.58949179  0.05279180    -0.05400
C3273       C  0.94189279  0.55313529  0.05501928    -0.16200
C3274       C  0.91930945  0.53335770  0.07048971     0.02700
C3275       C  0.90234707  0.60323979  0.09456405     0.12700
C3276       C  0.95066918  0.64618938  0.06219085     0.63300
H3277       H  0.96934794  0.60431498  0.04105587     0.12700
C3278       C  0.91623713  0.99827545  0.07738027     0.55400
H3279       H  0.89162276  0.53687216  0.09555524     0.08500
C3280       C  0.86455100  0.59439600  0.09445185    -0.05300
C3281       C  0.85237185  0.61123798  0.10735318    -0.06000
C3282       C  0.87682152  0.63754241  0.11975245    -0.15600
C3283       C  0.91503936  0.64786841  0.11904921    -0.01200
C3284       C  0.92665359  0.62885845  0.10724974    -0.08800
C3285       C  0.83710966  0.56739619  0.08077503     0.65500
H3286       H  0.82328223  0.60368202  0.10796251     0.11000
C3287       C  0.94486453  0.67980278  0.12939041     0.63900
H3288       H  0.95550728  0.63537598  0.10725937     0.08300
F3289       F  0.89138511  0.97234966  0.06545140    -0.19100
F3290       F  0.90250799  0.98886301  0.09546363    -0.15400
F3291       F  0.94982843  0.99850787  0.07653703    -0.18800
F3292       F  0.97502473  0.66708828  0.07591503    -0.22200
F3293       F  0.91964154  0.65059361  0.06265285    -0.23700
F3294       F  0.96799771  0.65863299  0.04500095    -0.17700
F3295       F  0.95850334  0.66779105  0.14372700    -0.20200
F3296       F  0.93224436  0.70184477  0.13666676    -0.21300
F3297       F  0.97362289  0.70050362  0.11715609    -0.18500
F3298       F  0.80330840  0.56683109  0.08130990    -0.18600
F3299       F  0.83092292  0.53329314  0.08518019    -0.22400
F3300       F  0.85086153  0.57610311  0.06268662    -0.24100
C3301       C  0.91718213  0.62052171  0.18317553    -0.10900
C3302       C  0.90776596  0.58710387  0.17510317     0.11700
C3303       C  0.88046499  0.57370081  0.16095652    -0.02700
C3304       C  0.86426220  0.59453921  0.15522536    -0.05400
C3305       C  0.87521088  0.62914155  0.16227868    -0.16200
C3306       C  0.90175039  0.64206376  0.17692010     0.02700
C3307       C  0.92586074  0.56609078  0.18211734     0.12700
C3308       C  0.86882805  0.53780366  0.15155071     0.63300
H3309       H  0.84310503  0.58400112  0.14464339     0.12700
C3310       C  0.91388110  0.67800328  0.18620659     0.55400
H3311       H  0.93689515  0.62965822  0.19453748     0.08500
C3312       C  0.96288537  0.57510091  0.17745415    -0.05300
C3313       C  0.97785801  0.55400751  0.18486293    -0.06000
C3314       C  0.95666244  0.52358803  0.19619307    -0.15600
C3315       C  0.91849626  0.51260800  0.19896582    -0.01200
C3316       C  0.90460115  0.53525172  0.19300001    -0.08800
C3317       C  0.98651853  0.60697797  0.16482048     0.65500
H3318       H  0.00673796  0.56195969  0.18242319     0.11000
C3319       C  0.89065901  0.47652743  0.20709116     0.63900
H3320       H  0.87612786  0.52792580  0.19629774     0.08300
F3321       F  0.92101011  0.70441373  0.17302826    -0.19100
F3322       F  0.94592955  0.68886257  0.19646117    -0.15400
F3323       F  0.88634818  0.67511159  0.19828554    -0.18800
F3324       F  0.84582226  0.53235253  0.13643218    -0.22200
F3325       F  0.84982374  0.50999161  0.16414842    -0.23700
F3326       F  0.89972433  0.53649596  0.14504732    -0.17700
F3327       F  0.87737017  0.48137653  0.22400632    -0.20200
F3328       F  0.90546591  0.45404330  0.20962375    -0.21300
F3329       F  0.86125943  0.45965896  0.19488576    -0.18500
F3330       F  0.02027234  0.60907138  0.16061009    -0.18600
F3331       F  0.99337929  0.63847517  0.17355392    -0.22400
F3332       F  0.96827567  0.60394203  0.14816528    -0.24100
C3333       C  0.71162441  0.58698318  0.18392649    -0.10900
C3334       C  0.68537769  0.59411036  0.17521425     0.11700
C3335       C  0.69757551  0.62150446  0.16141760    -0.02700
C3336       C  0.73534356  0.64019183  0.15668830    -0.05400
C3337       C  0.76126855  0.63080187  0.16382586    -0.16200
C3338       C  0.74950042  0.60473319  0.17849088     0.02700
C3339       C  0.64645882  0.57550854  0.18239721     0.12700
C3340       C  0.67228392  0.63193342  0.15085290     0.63300
H3341       H  0.74431324  0.66130199  0.14624794     0.12700
C3342       C  0.77620351  0.59619467  0.18895822     0.55400
H3343       H  0.70209115  0.56743452  0.19523020     0.08500
C3344       C  0.62027728  0.53998129  0.17729344    -0.05300
C3345       C  0.58415246  0.52438284  0.18498086    -0.06000
C3346       C  0.57385923  0.54280498  0.19787779    -0.15600
C3347       C  0.59884232  0.57986137  0.20101935    -0.01200
C3348       C  0.63508383  0.59506555  0.19377982    -0.08800
C3349       C  0.63065750  0.51861067  0.16400604     0.65500
H3350       H  0.56425772  0.49686527  0.18179647     0.11000
C3351       C  0.58858435  0.60538694  0.21071204     0.63900
H3352       H  0.65463150  0.62296889  0.19668147     0.08300
F3353       F  0.79701100  0.58837075  0.17666034    -0.19100
F3354       F  0.75776438  0.56686955  0.20082740    -0.15400
F3355       F  0.79943643  0.62526101  0.19974944    -0.18800
F3356       F  0.68054687  0.66632041  0.15589719    -0.22200
F3357       F  0.63500160  0.60909731  0.15411935    -0.23700
F3358       F  0.67842807  0.63160686  0.13181712    -0.17700
F3359       F  0.61139086  0.62065467  0.22594240    -0.20200
F3360       F  0.55216315  0.58895308  0.21662281    -0.21300
F3361       F  0.59386292  0.63257122  0.19832881    -0.18500
F3362       F  0.65836496  0.51353746  0.17178108    -0.18600
F3363       F  0.64309824  0.53702886  0.14720389    -0.22400
F3364       F  0.60079800  0.48513240  0.16032353    -0.24100
C3365       C  0.87678104  0.78977838  0.18355509    -0.10900
C3366       C  0.90995365  0.81558908  0.17499303     0.11700
C3367       C  0.92605856  0.80414935  0.16088562    -0.02700
C3368       C  0.90797355  0.76770399  0.15560679    -0.05400
C3369       C  0.87326899  0.74211618  0.16300588    -0.16200
C3370       C  0.85795289  0.75321814  0.17786200     0.02700
C3371       C  0.92933823  0.85352258  0.18230488     0.12700
C3372       C  0.96188601  0.83048055  0.15099571     0.63300
H3373       H  0.92057487  0.75894064  0.14502744     0.12700
C3374       C  0.82247655  0.72724182  0.18804710     0.55400
H3375       H  0.86587746  0.79861545  0.19495576     0.08500
C3376       C  0.91928454  0.88006636  0.17752462    -0.05300
C3377       C  0.93992468  0.91532532  0.18497182    -0.06000
C3378       C  0.97081829  0.92513891  0.19662479    -0.15600
C3379       C  0.98238197  0.89897077  0.19971680    -0.01200
C3380       C  0.96013575  0.86343662  0.19371782    -0.08800
C3381       C  0.88656110  0.87092697  0.16485976     0.65500
H3382       H  0.93128190  0.93512080  0.18222483     0.11000
C3383       C  0.01921463  0.90739065  0.20799012     0.63900
H3384       H  0.96824308  0.84340990  0.19714409     0.08300
F3385       F  0.81073192  0.74480960  0.20030265    -0.19100
F3386       F  0.82837751  0.70310387  0.19840704    -0.15400
F3387       F  0.79429729  0.70889684  0.17550280    -0.18800
F3388       F  0.99094562  0.84398819  0.16347568    -0.22200
F3389       F  0.95832368  0.85855834  0.14343622    -0.23700
F3390       F  0.97082794  0.81441092  0.13656149    -0.17700
F3391       F  0.01402157  0.89096246  0.22530521    -0.20200
F3392       F  0.55261432  0.94042636  0.19671484    -0.21300
F3393       F  0.53569884  0.88530394  0.20746798    -0.18500
F3394       F  0.88240285  0.90067732  0.16112506    -0.18600
F3395       F  0.85436603  0.84501407  0.17332882    -0.22400
F3396       F  0.89150455  0.85793827  0.14799979    -0.24100
C3397       C  0.77113487  0.88116916  0.93538916    -0.10900
C3398       C  0.80293524  0.90914926  0.92732897     0.11700
C3399       C  0.80087613  0.92256522  0.90955251    -0.02700
C3400       C  0.76721044  0.90496757  0.89973335    -0.05400
C3401       C  0.73580403  0.87434315  0.90706076    -0.16200
C3402       C  0.73659388  0.86765685  0.92672529     0.02700
C3403       C  0.83608755  0.92662748  0.93931226     0.12700
C3404       C  0.83395449  0.95528849  0.90117340     0.63300
H3405       H  0.76530678  0.91571396  0.88637669     0.12700
C3406       C  0.70504002  0.86021562  0.94030256     0.55400
H3407       H  0.77243970  0.87371143  0.94980991     0.08500
C3408       C  0.83809066  0.94856769  0.95464877    -0.05300
C3409       C  0.86627705  0.95767137  0.96783258    -0.06000
C3410       C  0.89328234  0.94708216  0.96573393    -0.15600
C3411       C  0.89209229  0.92617111  0.95004016    -0.01200
C3412       C  0.86301923  0.91593929  0.93717600    -0.08800
C3413       C  0.81136546  0.96297304  0.95795063     0.65500
H3414       H  0.86775341  0.97408333  0.97971505     0.11000
C3415       C  0.92018683  0.91321294  0.94730282     0.63900
H3416       H  0.86044843  0.89867127  0.92553673     0.08300
F3417       F  0.68116144  0.87054756  0.93261371    -0.19100
F3418       F  0.71828757  0.88020984  0.95650905    -0.15400
F3419       F  0.68641272  0.82439970  0.94554590    -0.18800
F3420       F  0.86267655  0.94790690  0.89830826    -0.22200
F3421       F  0.84558605  0.98403346  0.91322919    -0.23700
F3422       F  0.82547589  0.96525013  0.88420082    -0.17700
F3423       F  0.91086580  0.88946924  0.93253628    -0.20200
F3424       F  0.92189397  0.89573705  0.96333197    -0.21300
F3425       F  0.95480588  0.94202919  0.94347187    -0.18500
F3426       F  0.83133928  0.99976465  0.96052037    -0.18600
F3427       F  0.79069464  0.94721574  0.97395142    -0.22400
F3428       F  0.78737674  0.95672857  0.94325719    -0.24100
C3429       C  0.57904735  0.67002078  0.95832619    -0.10900
C3430       C  0.59162777  0.66414748  0.94112617     0.11700
C3431       C  0.59221767  0.63171913  0.93802783    -0.02700
C3432       C  0.57831175  0.60523677  0.95206194    -0.05400
C3433       C  0.56485710  0.61046800  0.96922308    -0.16200
C3434       C  0.56577745  0.64374188  0.97263486     0.02700
C3435       C  0.60720046  0.69373225  0.92719875     0.12700
C3436       C  0.60779452  0.62525624  0.92003880     0.63300
H3437       H  0.57818393  0.58007601  0.94975239     0.12700
C3438       C  0.55264664  0.65159539  0.99104677     0.55400
H3439       H  0.58014120  0.69566954  0.96047407     0.08500
C3440       C  0.58521086  0.69864308  0.91363424    -0.05300
C3441       C  0.60283059  0.72685024  0.90050419    -0.06000
C3442       C  0.64080566  0.75202537  0.90181427    -0.15600
C3443       C  0.66274467  0.74591504  0.91506345    -0.01200
C3444       C  0.64534303  0.71710053  0.92765186    -0.08800
C3445       C  0.54323031  0.67598196  0.91398252     0.65500
H3446       H  0.58644769  0.73152588  0.89020708     0.11000
C3447       C  0.70455295  0.76720233  0.91609867     0.63900
H3448       H  0.66186418  0.71253967  0.93796402     0.08300
F3449       F  0.55340492  0.68443762  0.99064782    -0.19100
F3450       F  0.57551524  0.65251543  0.00537785    -0.15400
F3451       F  0.51657839  0.62533577  0.99482489    -0.18800
F3452       F  0.64496668  0.65019534  0.91828458    -0.22200
F3453       F  0.58899011  0.62838422  0.90486930    -0.23700
F3454       F  0.60447307  0.59132743  0.91963443    -0.17700
F3455       F  0.71503548  0.78338917  0.93338760    -0.20200
F3456       F  0.71981967  0.79312956  0.90242270    -0.21300
F3457       F  0.71894351  0.74412219  0.91390288    -0.18500
F3458       F  0.52714839  0.68444581  0.89922870    -0.18600
F3459       F  0.52960542  0.68200028  0.93050163    -0.22400
F3460       F  0.53263928  0.63988294  0.91290872    -0.24100
C3461       C  0.61145791  0.92964383  0.95853796    -0.10900
C3462       C  0.59058205  0.91231454  0.94268768     0.11700
C3463       C  0.55506824  0.90886407  0.94013000    -0.02700
C3464       C  0.54202169  0.92409511  0.95346284    -0.05400
C3465       C  0.56263312  0.94123839  0.96944217    -0.16200
C3466       C  0.59794267  0.94414814  0.97216385     0.02700
C3467       C  0.60438401  0.89381406  0.93030616     0.12700
C3468       C  0.53054344  0.88818442  0.92377047     0.63300
H3469       H  0.51501260  0.92204988  0.95173035     0.12700
C3470       C  0.62135363  0.96271540  0.98914055     0.55400
H3471       H  0.63808672  0.93088310  0.96033551     0.08500
C3472       C  0.62742074  0.91057693  0.91464966    -0.05300
C3473       C  0.63709643  0.88980853  0.90307476    -0.06000
C3474       C  0.62464780  0.85311085  0.90676731    -0.15600
C3475       C  0.60287513  0.83718205  0.92321997    -0.01200
C3476       C  0.59359036  0.85814986  0.93468369    -0.08800
C3477       C  0.64304090  0.95045094  0.91076721     0.65500
H3478       H  0.65553946  0.90245652  0.89126609     0.11000
C3479       C  0.58786937  0.79868901  0.92967616     0.63900
H3480       H  0.57677812  0.84623897  0.94714208     0.08300
F3481       F  0.65626087  0.96580848  0.98791174    -0.19100
F3482       F  0.60421871  0.94312151  0.00513651    -0.15400
F3483       F  0.62576306  0.99693101  0.99068830    -0.18800
F3484       F  0.52196316  0.85257620  0.92489993    -0.22200
F3485       F  0.54855926  0.90251894  0.90697608    -0.23700
F3486       F  0.49758621  0.88929169  0.92373090    -0.17700
F3487       F  0.60498687  0.79804362  0.94616156    -0.20200
F3488       F  0.59321328  0.77810786  0.91681255    -0.21300
F3489       F  0.55008453  0.78314074  0.93291938    -0.18500
F3490       F  0.66374431  0.96107414  0.89436967    -0.18600
F3491       F  0.66573195  0.96986670  0.92537040    -0.22400
F3492       F  0.61476600  0.95878572  0.90913618    -0.24100
C3493       C  0.56671120  0.93899541  0.85245572    -0.10900
C3494       C  0.55715246  0.90587854  0.84408285     0.11700
C3495       C  0.52904876  0.89258803  0.83035391    -0.02700
C3496       C  0.51417681  0.91455958  0.82429920    -0.05400
C3497       C  0.52746001  0.95004647  0.83070900    -0.16200
C3498       C  0.55200151  0.96117562  0.84630763     0.02700
C3499       C  0.57656197  0.88562589  0.85041270     0.12700
C3500       C  0.51513723  0.85556354  0.82191144     0.63300
H3501       H  0.49276019  0.90455010  0.81379423     0.12700
C3502       C  0.57129008  0.50492689  0.85390760     0.55400
H3503       H  0.58644195  0.94755009  0.86380573     0.08500
C3504       C  0.61242676  0.89421820  0.84391674    -0.05300
C3505       C  0.63010719  0.87601873  0.85146692    -0.06000
C3506       C  0.61375310  0.84912067  0.86504628    -0.15600
C3507       C  0.57596879  0.83779361  0.87006024    -0.01200
C3508       C  0.55901405  0.85754010  0.86341649    -0.08800
C3509       C  0.63175298  0.92189277  0.82868638     0.65500
H3510       H  0.65740606  0.88330323  0.84699279     0.11000
C3511       C  0.55091724  0.80407192  0.88115319     0.63900
H3512       H  0.53118923  0.85023509  0.86807989     0.08300
F3513       F  0.60010479  0.51313391  0.86621485    -0.19100
F3514       F  0.54384210  0.50766291  0.86364622    -0.15400
F3515       F  0.58482490  0.53015614  0.83970427    -0.18800
F3516       F  0.49837746  0.82953596  0.83565586    -0.22200
F3517       F  0.54427750  0.85265533  0.81418016    -0.23700
F3518       F  0.98011098  0.84617305  0.81382869    -0.17700
F3519       F  0.53984184  0.81327075  0.89754908    -0.20200
F3520       F  0.56735901  0.78354996  0.88535415    -0.21300
F3521       F  0.51966939  0.78291634  0.87071343    -0.18500
F3522       F  0.66670925  0.92678917  0.82455088    -0.18600
F3523       F  0.63570813  0.95461418  0.83419797    -0.22400
F3524       F  0.61076405  0.91024144  0.81264820    -0.24100
C3525       C  0.60071162  0.70868722  0.83848069    -0.10900
C3526       C  0.61221254  0.68490370  0.84523704     0.11700
C3527       C  0.64254597  0.69773670  0.85764455    -0.02700
C3528       C  0.65817977  0.73337520  0.86407002    -0.05400
C3529       C  0.64348171  0.75610436  0.85934534    -0.16200
C3530       C  0.61548995  0.74408655  0.84524658     0.02700
C3531       C  0.59198123  0.64682443  0.83881098     0.12700
C3532       C  0.65762866  0.67360644  0.86452553     0.63300
H3533       H  0.68104626  0.74326396  0.87378200     0.12700
C3534       C  0.59996094  0.76707677  0.83735098     0.55400
H3535       H  0.57900898  0.69862496  0.82808268     0.08500
C3536       C  0.55619968  0.62182997  0.84555297    -0.05300
C3537       C  0.53838095  0.58671586  0.83821829    -0.06000
C3538       C  0.55494148  0.57538670  0.82460940    -0.15600
C3539       C  0.59239810  0.60008967  0.81920172    -0.01200
C3540       C  0.60911484  0.63564244  0.82562126    -0.08800
C3541       C  0.53670220  0.63235489  0.86025682     0.65500
H3542       H  0.00819279  0.56386860  0.84453232     0.11000
C3543       C  0.61747321  0.59105418  0.80759946     0.63900
H3544       H  0.63653824  0.65488457  0.82053503     0.08300
F3545       F  0.57112304  0.74831986  0.82504046    -0.19100
F3546       F  0.62713896  0.79601617  0.82759666    -0.15400
F3547       F  0.58617871  0.77862850  0.85161605    -0.18800
F3548       F  0.67325878  0.66470952  0.84976490    -0.22200
F3549       F  0.62933599  0.64248970  0.87228969    -0.23700
F3550       F  0.68462565  0.69022044  0.87799513    -0.17700
F3551       F  0.62838701  0.61191128  0.79151779    -0.20200
F3552       F  0.60107721  0.55560875  0.80269435    -0.21300
F3553       F  0.64878380  0.59861231  0.81783240    -0.18500
F3554       F  0.00247435  0.59664678  0.86968802    -0.18600
F3555       F  0.52817265  0.65749290  0.85293229    -0.22400
F3556       F  0.55957128  0.64690002  0.87549335    -0.24100
C3557       C  0.87964237  0.95213015  0.84875917    -0.10900
C3558       C  0.85707083  0.91723935  0.84202480     0.11700
C3559       C  0.87143898  0.90480448  0.82744147    -0.02700
C3560       C  0.90853393  0.92671141  0.82130419    -0.05400
C3561       C  0.93074683  0.96237389  0.82748296    -0.16200
C3562       C  0.91545625  0.97527065  0.84140314     0.02700
C3563       C  0.81761813  0.89720766  0.84922366     0.12700
C3564       C  0.84861359  0.87008779  0.81685960     0.63300
H3565       H  0.91935578  0.91676037  0.81034908     0.12700
C3566       C  0.93342755  0.50946965  0.84843403     0.55400
H3567       H  0.86823866  0.96174546  0.85951725     0.08500
C3568       C  0.80493786  0.86923338  0.86276701    -0.05300
C3569       C  0.76761017  0.85314952  0.86915601    -0.06000
C3570       C  0.74281156  0.86540626  0.86359185    -0.15600
C3571       C  0.75623430  0.89382494  0.85008035    -0.01200
C3572       C  0.79289794  0.90862973  0.84307342    -0.08800
C3573       C  0.83128673  0.85778353  0.87118157     0.65500
H3574       H  0.75817756  0.83196941  0.87941656     0.11000
C3575       C  0.73274028  0.90947726  0.84317587     0.63900
H3576       H  0.80301957  0.93011834  0.83283586     0.08300
F3577       F  0.91235301  0.02290157  0.85769507    -0.19100
F3578       F  0.94692451  0.53390429  0.83377303    -0.15400
F3579       F  0.96185611  0.51215731  0.85958582    -0.18800
F3580       F  0.81230830  0.85090860  0.82302956    -0.22200
F3581       F  0.86478497  0.84843969  0.81859945    -0.23700
F3582       F  0.84815245  0.87807238  0.79809933    -0.17700
F3583       F  0.75307032  0.94088544  0.83297296    -0.20200
F3584       F  0.71710590  0.91757989  0.85826731    -0.21300
F3585       F  0.70601977  0.88481464  0.83149369    -0.18500
F3586       F  0.81374859  0.83036598  0.88422634    -0.18600
F3587       F  0.85992207  0.88672139  0.88003105    -0.22400
F3588       F  0.84588618  0.84575552  0.85732673    -0.24100
C3589       C  0.89980995  0.94832537  0.75621051    -0.10900
C3590       C  0.86784373  0.94495156  0.76456354     0.11700
C3591       C  0.86984025  0.96025088  0.78221868    -0.02700
C3592       C  0.90419861  0.97688646  0.79144066    -0.05400
C3593       C  0.93625829  0.97727829  0.78405014    -0.16200
C3594       C  0.93468251  0.96798102  0.76452404     0.02700
C3595       C  0.83398234  0.92874144  0.75309066     0.12700
C3596       C  0.83570114  0.95843419  0.79126699     0.63300
H3597       H  0.90600789  0.98993873  0.80457581     0.12700
C3598       C  0.95768809  0.47297536  0.74970927     0.55400
H3599       H  0.89763457  0.93812883  0.74211206     0.08500
C3600       C  0.82622522  0.94907776  0.73980959    -0.05300
C3601       C  0.79684069  0.93077597  0.72737509    -0.06000
C3602       C  0.77582294  0.89327376  0.72752369    -0.15600
C3603       C  0.78389337  0.87285027  0.74047167    -0.01200
C3604       C  0.81284065  0.89112320  0.75323551    -0.08800
C3605       C  0.84812588  0.98972581  0.73762466     0.65500
H3606       H  0.79048342  0.94598659  0.71722176     0.11000
C3607       C  0.76338174  0.83204295  0.74007790     0.63900
H3608       H  0.82015524  0.87613668  0.76302030     0.08300
F3609       F  0.94503931  0.46492992  0.73147120    -0.19100
F3610       F  0.98619531  0.96648267  0.74993695    -0.15400
F3611       F  0.98237613  0.50946535  0.74975527    -0.18800
F3612       F  0.80888195  0.92288091  0.79368945    -0.22200
F3613       F  0.82176576  0.97544664  0.77999425    -0.23700
F3614       F  0.84353899  0.97492176  0.80856435    -0.17700
F3615       F  0.77840283  0.81754913  0.75242915    -0.20200
F3616       F  0.76537916  0.82039128  0.72226982    -0.21300
F3617       F  0.72661868  0.81915030  0.74495940    -0.18500
F3618       F  0.82450293  0.00378589  0.74021771    -0.18600
F3619       F  0.88381240  0.49699211  0.73071692    -0.22400
F3620       F  0.87696487  0.00620925  0.75010385    -0.24100
C3621       C  0.57731598  0.60397180  0.75459563    -0.10900
C3622       C  0.56904164  0.63090053  0.75929661     0.11700
C3623       C  0.54600582  0.62623057  0.77489756    -0.02700
C3624       C  0.53405696  0.59519903  0.78613243    -0.05400
C3625       C  0.54439363  0.56879308  0.78229079    -0.16200
C3626       C  0.56585400  0.57311813  0.76566353     0.02700
C3627       C  0.58459196  0.66303133  0.74695919     0.12700
C3628       C  0.53317054  0.65326921  0.77921519     0.63300
H3629       H  0.01175888  0.58906243  0.79888338     0.12700
C3630       C  0.57922320  0.54804850  0.75848318     0.55400
H3631       H  0.59393251  0.60761863  0.74211216     0.08500
C3632       C  0.62168778  0.69097048  0.74872646    -0.05300
C3633       C  0.63593110  0.71864729  0.73523632    -0.06000
C3634       C  0.61454662  0.71877108  0.72004843    -0.15600
C3635       C  0.57728223  0.69116015  0.71848223    -0.01200
C3636       C  0.56305634  0.66331827  0.73191578    -0.08800
C3637       C  0.64631881  0.69120418  0.76454902     0.65500
H3638       H  0.66413422  0.74046598  0.73635053     0.11000
C3639       C  0.55230242  0.69189594  0.70317497     0.63900
H3640       H  0.53499272  0.64129415  0.73074014     0.08300
F3641       F  0.61733398  0.56672638  0.75608576    -0.19100
F3642       F  0.56298764  0.53438023  0.74138048    -0.15400
F3643       F  0.57127515  0.52015100  0.77028281    -0.18800
F3644       F  0.00389336  0.65152811  0.76567559    -0.22200
F3645       F  0.56330677  0.68723280  0.78107265    -0.23700
F3646       F  0.00614522  0.64168094  0.79637108    -0.17700
F3647       F  0.56569673  0.68906790  0.68586043    -0.20200
F3648       F  0.55120053  0.72380379  0.70394728    -0.21300
F3649       F  0.51636647  0.66387470  0.70506033    -0.18500
F3650       F  0.68022447  0.72246102  0.76454402    -0.18600
F3651       F  0.65289993  0.66254621  0.76262310    -0.22400
F3652       F  0.62933947  0.68852299  0.78165506    -0.24100
C3653       C  0.57670332  0.94234354  0.77013812    -0.10900
C3654       C  0.54835035  0.91836484  0.75855212     0.11700
C3655       C  0.51126766  0.90937584  0.76225218    -0.02700
C3656       C  0.50424053  0.92744353  0.77672846    -0.05400
C3657       C  0.53286408  0.95322469  0.78778543    -0.16200
C3658       C  0.56989682  0.95968917  0.78498857     0.02700
C3659       C  0.55906713  0.90224605  0.74320745     0.12700
C3660       C  0.47950285  0.88124509  0.75086560     0.63300
H3661       H  0.97458592  0.92165466  0.78166521     0.12700
C3662       C  0.60145542  0.48383723  0.79421214     0.55400
H3663       H  0.60484609  0.94786228  0.76732800     0.08500
C3664       C  0.57713903  0.92200002  0.72683152    -0.05300
C3665       C  0.59371993  0.90792624  0.71476209    -0.06000
C3666       C  0.59236029  0.87500191  0.71867207    -0.15600
C3667       C  0.57081117  0.85365216  0.73400874    -0.01200
C3668       C  0.55543159  0.86828023  0.74637824    -0.08800
C3669       C  0.57953339  0.95800329  0.72237042     0.65500
H3670       H  0.60939888  0.92336204  0.70266749     0.11000
C3671       C  0.56413347  0.81577401  0.73760717     0.63900
H3672       H  0.54171398  0.85382699  0.75908688     0.08300
F3673       F  0.62234762  0.51261952  0.78245773    -0.19100
F3674       F  0.62297509  0.46820067  0.79817798    -0.15400
F3675       F  0.59493197  0.49608444  0.81073659    -0.18800
F3676       F  0.47692651  0.84800927  0.75376926    -0.22200
F3677       F  0.48543731  0.88979757  0.73201857    -0.23700
F3678       F  0.94290668  0.87796984  0.75856243    -0.17700
F3679       F  0.59475146  0.81714390  0.74616833    -0.20200
F3680       F  0.55736415  0.79717702  0.72095426    -0.21300
F3681       F  0.53361473  0.79669284  0.74916503    -0.18500
F3682       F  0.59609437  0.97132376  0.70511093    -0.18600
F3683       F  0.60014371  0.98296923  0.73579124    -0.22400
F3684       F  0.54434146  0.95418279  0.72198870    -0.24100
C3685       C  0.79471221  0.75913511  0.42536248    -0.10900
C3686       C  0.76223584  0.76079061  0.42191730     0.11700
C3687       C  0.74304581  0.74691061  0.40493560    -0.02700
C3688       C  0.75629691  0.73042240  0.39223678    -0.05400
C3689       C  0.78825933  0.72761216  0.39585643    -0.16200
C3690       C  0.80823010  0.74281253  0.41269062     0.02700
C3691       C  0.74943756  0.77816884  0.43608814     0.12700
C3692       C  0.70882997  0.74985885  0.40024297     0.63300
H3693       H  0.74151494  0.71935389  0.37933688     0.12700
C3694       C  0.84408229  0.74268931  0.41731695     0.55400
H3695       H  0.80929233  0.77061085  0.43826631     0.08500
C3696       C  0.72592875  0.75885305  0.45129851    -0.05300
C3697       C  0.71019557  0.77559210  0.46224662    -0.06000
C3698       C  0.72043079  0.81210937  0.45976578    -0.15600
C3699       C  0.74951164  0.83270050  0.44685951    -0.01200
C3700       C  0.76175494  0.81504223  0.43443740    -0.08800
C3701       C  0.71792068  0.72097225  0.45598407     0.65500
H3702       H  0.68841598  0.75961638  0.47213005     0.11000
C3703       C  0.77019770  0.87329073  0.44674077     0.63900
H3704       H  0.78196409  0.83036312  0.42364772     0.08300
F3705       F  0.83661826  0.70802040  0.42137523    -0.19100
F3706       F  0.86149901  0.76373882  0.43270711    -0.15400
F3707       F  0.86853359  0.75617270  0.40233152    -0.18800
F3708       F  0.71791368  0.78564407  0.39946736    -0.22200
F3709       F  0.68192069  0.73249136  0.41383370    -0.23700
F3710       F  0.69404028  0.73458163  0.38313114    -0.17700
F3711       F  0.80782644  0.88570423  0.44448144    -0.20200
F3712       F  0.76566131  0.88658822  0.46351636    -0.21300
F3713       F  0.75803377  0.88620494  0.43214192    -0.18500
F3714       F  0.69545524  0.70742107  0.47169360    -0.18600
F3715       F  0.75087331  0.72113324  0.45961005    -0.22400
F3716       F  0.70053698  0.69834207  0.44115099    -0.24100
C3717       C  0.58331437  0.78278733  0.41522884    -0.10900
C3718       C  0.55305730  0.78841150  0.41776415     0.11700
C3719       C  0.55006823  0.80508794  0.43419420    -0.02700
C3720       C  0.57821982  0.81599184  0.44758281    -0.05400
C3721       C  0.60827079  0.80913107  0.44568245    -0.16200
C3722       C  0.61043479  0.79165471  0.42904822     0.02700
C3723       C  0.52173555  0.77019458  0.40474668     0.12700
C3724       C  0.51700364  0.81087716  0.43767489     0.63300
H3725       H  0.57688613  0.83037125  0.45970957     0.12700
C3726       C  0.63926182  0.78018703  0.42535695     0.55400
H3727       H  0.58446622  0.76937724  0.40257820     0.08500
C3728       C  0.51920814  0.78553057  0.38759775    -0.05300
C3729       C  0.98676509  0.76567732  0.37500008    -0.06000
C3730       C  0.96054397  0.73053734  0.38040109    -0.15600
C3731       C  0.96774323  0.71377122  0.39577344    -0.01200
C3732       C  0.99929712  0.73423277  0.40644372    -0.08800
C3733       C  0.55036254  0.82147336  0.38080396     0.65500
H3734       H  0.98138999  0.77741380  0.36272711     0.11000
C3735       C  0.94276063  0.67446219  0.40088485     0.63900
H3736       H  0.00460093  0.72262291  0.41880767     0.08300
F3737       F  0.66870147  0.80684598  0.41545539    -0.19100
F3738       F  0.62439216  0.74896411  0.41493320    -0.15400
F3739       F  0.65154809  0.77279555  0.44168554    -0.18800
F3740       F  0.48472405  0.77822400  0.43819811    -0.22200
F3741       F  0.51441475  0.83168158  0.42350742    -0.23700
F3742       F  0.51985093  0.82807956  0.45447827    -0.17700
F3743       F  0.93355866  0.65355877  0.38495622    -0.20200
F3744       F  0.91083058  0.67015147  0.40953190    -0.21300
F3745       F  0.96010474  0.66200215  0.41303254    -0.18500
F3746       F  0.54216752  0.83155779  0.36378504    -0.18600
F3747       F  0.58242715  0.81922356  0.37855927    -0.22400
F3748       F  0.55676122  0.84799297  0.39363834    -0.24100
C3749       C  0.71304405  0.95366667  0.42801670    -0.10900
C3750       C  0.74916925  0.97901218  0.43246753     0.11700
C3751       C  0.76563619  0.97483749  0.44889623    -0.02700
C3752       C  0.74610719  0.94278157  0.45936932    -0.05400
C3753       C  0.71052253  0.91566833  0.45409780    -0.16200
C3754       C  0.69300478  0.92251327  0.43871572     0.02700
C3755       C  0.76714429  0.01037564  0.41978700     0.12700
C3756       C  0.80329408  0.00407315  0.45526018     0.63300
H3757       H  0.75846164  0.93878820  0.47182920     0.12700
C3758       C  0.65301035  0.89840456  0.43364245     0.55400
H3759       H  0.70060793  0.95857260  0.41579666     0.08500
C3760       C  0.78107864  0.00787495  0.40203901    -0.05300
C3761       C  0.79463396  0.52872706  0.38778773    -0.06000
C3762       C  0.79103574  0.55914056  0.39187385    -0.15600
C3763       C  0.77552458  0.56109439  0.40937886    -0.01200
C3764       C  0.76445384  0.53258272  0.42219681    -0.08800
C3765       C  0.78428869  0.97505562  0.39663531     0.65500
H3766       H  0.80654748  0.52765260  0.37442771     0.11000
C3767       C  0.76900075  0.59228320  0.41434726     0.63900
H3768       H  0.75196335  0.53315507  0.43547375     0.08300
F3769       F  0.65008299  0.86923164  0.42401289    -0.19100
F3770       F  0.63941731  0.91564493  0.42222916    -0.15400
F3771       F  0.63149811  0.88795239  0.44965851    -0.18800
F3772       F  0.80505206  0.50247262  0.47075139    -0.22200
F3773       F  0.82385610  0.51766486  0.44102338    -0.23700
F3774       F  0.81401819  0.99488380  0.47181791    -0.17700
F3775       F  0.74672456  0.58487123  0.43010125    -0.20200
F3776       F  0.75152713  0.59932357  0.39972651    -0.21300
F3777       F  0.80245835  0.62257495  0.41798269    -0.18500
F3778       F  0.80245885  0.97993761  0.37964614    -0.18600
F3779       F  0.74935979  0.94553354  0.39511894    -0.22400
F3780       F  0.80394880  0.96808522  0.41009501    -0.24100
C3781       C  0.76557615  0.71583607  0.59774222    -0.10900
C3782       C  0.78621377  0.75278540  0.59473075     0.11700
C3783       C  0.81350368  0.76624118  0.58048291    -0.02700
C3784       C  0.81743280  0.74154575  0.56886699    -0.05400
C3785       C  0.79723689  0.70404248  0.57195801    -0.16200
C3786       C  0.77065585  0.69109908  0.58691844     0.02700
C3787       C  0.77688747  0.77557394  0.60685254     0.12700
C3788       C  0.83848756  0.80635830  0.57782169     0.63300
H3789       H  0.83636977  0.75160087  0.55717558     0.12700
C3790       C  0.74583962  0.65169237  0.59124678     0.55400
H3791       H  0.74497397  0.70657194  0.60885115     0.08500
C3792       C  0.74739774  0.78237358  0.60240687    -0.05300
C3793       C  0.73142894  0.79289280  0.61670136    -0.06000
C3794       C  0.74440351  0.79777065  0.63508425    -0.15600
C3795       C  0.77563758  0.79379808  0.63936056    -0.01200
C3796       C  0.79116232  0.78225812  0.62512783    -0.08800
C3797       C  0.73049630  0.77776101  0.58316025     0.65500
H3798       H  0.70806992  0.79696093  0.61348770     0.11000
C3799       C  0.79123955  0.80013164  0.65901392     0.63900
H3800       H  0.81336456  0.77653394  0.62837453     0.08300
F3801       F  0.72554238  0.63498145  0.57561099    -0.19100
F3802       F  0.72070447  0.64589727  0.60553472    -0.15400
F3803       F  0.76694805  0.63653033  0.59694058    -0.18800
F3804       F  0.85752210  0.82090161  0.59421393    -0.22200
F3805       F  0.81769013  0.82275747  0.57343257    -0.23700
F3806       F  0.86421138  0.81391230  0.56361273    -0.17700
F3807       F  0.81996843  0.79231519  0.66054370    -0.20200
F3808       F  0.76369971  0.77858439  0.67161966    -0.21300
F3809       F  0.80471506  0.83577563  0.66371236    -0.18500
F3810       F  0.73205586  0.80964957  0.57764673    -0.18600
F3811       F  0.69376489  0.75120540  0.58405594    -0.22400
F3812       F  0.74845179  0.76872670  0.56967768    -0.24100
C3813       C  0.95634869  0.74613310  0.58081443    -0.10900
C3814       C  0.95780207  0.72566769  0.59588502     0.11700
C3815       C  0.92661624  0.69191788  0.59992054    -0.02700
C3816       C  0.89723684  0.67751523  0.58707162    -0.05400
C3817       C  0.89630433  0.69712056  0.57133713    -0.16200
C3818       C  0.92491089  0.73345396  0.56930122     0.02700
C3819       C  0.99058677  0.74186843  0.60838782     0.12700
C3820       C  0.92369211  0.67201358  0.61810796     0.63300
H3821       H  0.87444318  0.65072207  0.58939715     0.12700
C3822       C  0.92272788  0.76082854  0.55653918     0.55400
H3823       H  0.97915477  0.77315768  0.57870928     0.08500
C3824       C  0.52728494  0.73811621  0.60759461    -0.05300
C3825       C  0.55671064  0.75384254  0.62037337    -0.06000
C3826       C  0.55493490  0.77242383  0.63614808    -0.15600
C3827       C  0.52209855  0.77433065  0.63980564    -0.01200
C3828       C  0.98982559  0.76231027  0.62349744    -0.08800
C3829       C  0.53153044  0.72005564  0.59022380     0.65500
H3830       H  0.58198953  0.75270130  0.61784289     0.11000
C3831       C  0.51756803  0.79201970  0.65731608     0.63900
H3832       H  0.96570358  0.76581278  0.62519059     0.08300
F3833       F  0.94865794  0.77060561  0.54245540    -0.19100
F3834       F  0.92991232  0.79111011  0.56668079    -0.15400
F3835       F  0.88858518  0.74828050  0.54854322    -0.18800
F3836       F  0.92455406  0.69286147  0.63308350    -0.22200
F3837       F  0.45897380  0.66188233  0.61857754    -0.23700
F3838       F  0.89095679  0.63968383  0.61927806    -0.17700
F3839       F  0.04019421  0.83420626  0.65124058    -0.20200
F3840       F  0.52621147  0.77842085  0.67298805    -0.21300
F3841       F  0.48155945  0.78575732  0.65946830    -0.18500
F3842       F  0.56530572  0.72056672  0.58971081    -0.18600
F3843       F  0.52923268  0.73775205  0.57444094    -0.22400
F3844       F  0.50401059  0.68458218  0.58982789    -0.24100
C3845       C  0.73971997  0.51050069  0.63061810    -0.10900
C3846       C  0.73678303  0.50269896  0.61143433     0.11700
C3847       C  0.72216298  0.96861317  0.60598622    -0.02700
C3848       C  0.70978941  0.94153138  0.61970716    -0.05400
C3849       C  0.72444555  0.94837830  0.63780743    -0.16200
C3850       C  0.75236510  0.98339631  0.64261853     0.02700
C3851       C  0.75317618  0.53286667  0.59776683     0.12700
C3852       C  0.70780706  0.95918033  0.58611594     0.63300
H3853       H  0.68906054  0.91433240  0.61627547     0.12700
C3854       C  0.77033359  0.99141710  0.66177146     0.55400
H3855       H  0.75269465  0.53835143  0.63494616     0.08500
C3856       C  0.73358838  0.54976532  0.59081882    -0.05300
C3857       C  0.75021425  0.57605596  0.57665982    -0.06000
C3858       C  0.78615670  0.58735375  0.56980371    -0.15600
C3859       C  0.80427806  0.56808117  0.57606399    -0.01200
C3860       C  0.78833537  0.54273092  0.59062067    -0.08800
C3861       C  0.69614111  0.54125407  0.59895458     0.65500
H3862       H  0.73530436  0.58851470  0.57110941     0.11000
C3863       C  0.83829288  0.57045495  0.56693149     0.63900
H3864       H  0.80269885  0.52897469  0.59591653     0.08300
F3865       F  0.71118532  0.51233739  0.66787804    -0.19100
F3866       F  0.79415883  0.02779708  0.66412641    -0.15400
F3867       F  0.79060141  0.97366418  0.66387819    -0.18800
F3868       F  0.73702759  0.96837339  0.57380482    -0.22200
F3869       F  0.68930099  0.97749576  0.58123862    -0.23700
F3870       F  0.68346630  0.92281881  0.58417408    -0.17700
F3871       F  0.86926785  0.59334782  0.57701344    -0.20200
F3872       F  0.84123130  0.58165178  0.54866603    -0.21300
F3873       F  0.83612512  0.53697022  0.56653858    -0.18500
F3874       F  0.68085152  0.55937211  0.58958902    -0.18600
F3875       F  0.70030843  0.55139020  0.61753696    -0.22400
F3876       F  0.67157744  0.50486078  0.59783593    -0.24100
C3877       C  0.69314311  0.74750818  0.51261610    -0.10900
C3878       C  0.73114678  0.76197158  0.51574703     0.11700
C3879       C  0.75423631  0.79959927  0.51264261    -0.02700
C3880       C  0.73908455  0.81909510  0.50374804    -0.05400
C3881       C  0.70065976  0.80482465  0.50143991    -0.16200
C3882       C  0.67737548  0.76940953  0.50856192     0.02700
C3883       C  0.74611063  0.73702213  0.52057042     0.12700
C3884       C  0.79469634  0.82064534  0.51824388     0.63300
H3885       H  0.75773661  0.84576510  0.49850050     0.12700
C3886       C  0.63695443  0.75330010  0.51379942     0.55400
H3887       H  0.67496876  0.71898450  0.51465697     0.08500
C3888       C  0.73123517  0.70965915  0.53462570    -0.05300
C3889       C  0.74876121  0.68887560  0.53784922    -0.06000
C3890       C  0.78326332  0.69715077  0.52988995    -0.15600
C3891       C  0.79605123  0.72236230  0.51471684    -0.01200
C3892       C  0.77601906  0.74013735  0.50983606    -0.08800
C3893       C  0.69740471  0.70095087  0.54671166     0.65500
H3894       H  0.73653634  0.66716725  0.54784213     0.11000
C3895       C  0.83057864  0.73163016  0.50364585     0.63900
H3896       H  0.78483119  0.75846325  0.49799417     0.08300
F3897       F  0.63234323  0.74235307  0.53236340    -0.19100
F3898       F  0.61611719  0.72355060  0.50294053    -0.15400
F3899       F  0.62393838  0.77713971  0.51223219    -0.18800
F3900       F  0.81684676  0.83045923  0.50236038    -0.22200
F3901       F  0.80523593  0.80173406  0.53023225    -0.23700
F3902       F  0.80071247  0.85147398  0.52750039    -0.17700
F3903       F  0.83986287  0.75980002  0.49117903    -0.20200
F3904       F  0.82482272  0.70213058  0.49327017    -0.21300
F3905       F  0.85970166  0.74214009  0.51582410    -0.18500
F3906       F  0.70197374  0.69116791  0.56461216    -0.18600
F3907       F  0.66652924  0.67243321  0.53897076    -0.22400
F3908       F  0.69112611  0.72974350  0.54854510    -0.24100
C3909       C  0.73391541  0.96379599  0.51619660    -0.10900
C3910       C  0.72376580  0.98733504  0.50753875     0.11700
C3911       C  0.69842130  0.97453227  0.49254779    -0.02700
C3912       C  0.68197057  0.93786000  0.48770224    -0.05400
C3913       C  0.69415102  0.91470729  0.49519771    -0.16200
C3914       C  0.72097190  0.92826807  0.50974530     0.02700
C3915       C  0.73229155  0.51959298  0.51332520     0.12700
C3916       C  0.67749754  0.49158121  0.47988391     0.63300
H3917       H  0.66179883  0.92781845  0.47662047     0.12700
C3918       C  0.73874471  0.90703044  0.51723324     0.55400
H3919       H  0.75396740  0.97435618  0.52738784     0.08500
C3920       C  0.71765018  0.53537071  0.52572236    -0.05300
C3921       C  0.74096582  0.57079269  0.53179669    -0.06000
C3922       C  0.77896497  0.58983257  0.52721120    -0.15600
C3923       C  0.79268485  0.57525251  0.51341493    -0.01200
C3924       C  0.76901612  0.54008747  0.50692149    -0.08800
C3925       C  0.68616102  0.01679540  0.53475462     0.65500
H3926       H  0.72982972  0.58372471  0.54065238     0.11000
C3927       C  0.83088833  0.59672581  0.50452986     0.63900
H3928       H  0.77909480  0.52796490  0.49682320     0.08300
F3929       F  0.76496524  0.92566437  0.53078620    -0.19100
F3930       F  0.75638697  0.90016763  0.50268178    -0.15400
F3931       F  0.71227673  0.87513672  0.52516922    -0.18800
F3932       F  0.68992303  0.49136097  0.46188508    -0.22200
F3933       F  0.69341725  0.52689925  0.48560501    -0.23700
F3934       F  0.66641234  0.98266167  0.46649708    -0.17700
F3935       F  0.84075266  0.57487757  0.49450980    -0.20200
F3936       F  0.85778611  0.61416766  0.51778744    -0.21300
F3937       F  0.83070176  0.62187001  0.49231470    -0.18500
F3938       F  0.66993397  0.53437823  0.54558272    -0.18600
F3939       F  0.66798088  0.98171154  0.52860710    -0.22400
F3940       F  0.66582181  0.03323858  0.52945651    -0.24100
C3941       C  0.96833999  0.71663470  0.52522680    -0.10900
C3942       C  0.97121302  0.73733565  0.50943587     0.11700
C3943       C  0.93803578  0.73159270  0.50073375    -0.02700
C3944       C  0.90365007  0.70937743  0.50982804    -0.05400
C3945       C  0.90096389  0.69301547  0.52736139    -0.16200
C3946       C  0.93377194  0.69255364  0.53329688     0.02700
C3947       C  0.51587262  0.76596797  0.50287231     0.12700
C3948       C  0.93896473  0.74826023  0.48178106     0.63300
H3949       H  0.87871296  0.70400684  0.50291037     0.12700
C3950       C  0.93378050  0.66374977  0.54556800     0.55400
H3951       H  0.99328277  0.71735729  0.53051884     0.08500
C3952       C  0.54190201  0.80151310  0.50819087    -0.05300
C3953       C  0.57793316  0.81816839  0.50016985    -0.06000
C3954       C  0.58958146  0.79993574  0.48782088    -0.15600
C3955       C  0.56375542  0.76342141  0.48340173    -0.01200
C3956       C  0.52718949  0.74799029  0.49035206    -0.08800
C3957       C  0.53230632  0.82120271  0.52290956     0.65500
H3958       H  0.59765416  0.84561513  0.50373796     0.11000
C3959       C  0.57308511  0.73845588  0.47239396     0.63900
H3960       H  0.50749574  0.72047233  0.48678268     0.08300
F3961       F  0.95514596  0.67886586  0.56113933    -0.19100
F3962       F  0.94859377  0.64578219  0.53569113    -0.15400
F3963       F  0.89883034  0.63901740  0.55107954    -0.18800
F3964       F  0.95339637  0.73490176  0.46849714    -0.22200
F3965       F  0.96088601  0.78515844  0.48259633    -0.23700
F3966       F  0.90394706  0.74070933  0.47604478    -0.17700
F3967       F  0.55822371  0.70538793  0.48134195    -0.20200
F3968       F  0.61069404  0.75131570  0.47077288    -0.21300
F3969       F  0.55761193  0.73312560  0.45478789    -0.18500
F3970       F  0.56033005  0.85630896  0.52503732    -0.18600
F3971       F  0.52688246  0.80367984  0.53991514    -0.22400
F3972       F  0.50043135  0.82208720  0.51802660    -0.24100
loop_ 
_geom_bond_atom_site_label_1 
_geom_bond_atom_site_label_2 
_geom_bond_distance 
_geom_bond_site_symmetry_2 
_ccdc_geom_bond_type 
C1            H2   1.107       .  S
C1            C7   1.542       .  S
C1            C6   1.550       .  S
C1            C5   1.533       .  S
C3            H4   1.100       .  S
C3            C9   1.561       .  S
C3            C8   1.589       .  S
C3           C10   1.578       .  S
C5            C8   1.389       .  D
C5          C838   1.505       .  S
C6            C9   1.382       .  D
C6          C879   1.515       .  S
C7           C10   1.388       .  D
C7          C806   1.519       .  S
C8          C966   1.543       .  S
C9          C943   1.518       .  S
C10         C911   1.540       .  S
C11          H12   1.104       .  S
C11          C17   1.572       .  S
C11          C16   1.562       .  S
C11          C15   1.560       .  S
C13          H14   1.099       .  S
C13          C19   1.542       .  S
C13          C18   1.547       .  S
C13          C20   1.532       .  S
C15          C18   1.379       .  D
C15         C902   1.524       .  S
C16          C19   1.384       .  D
C16         C975   1.515       .  S
C17          C20   1.380       .  D
C17         C934   1.526       .  S
C18         C719   1.499       .  S
C19         C742   1.512       .  S
C20         C774   1.506       .  S
Zn21         O25   1.962       .  S
Zn21         O26   2.024       .  S
Zn21         O30   2.027       .  S
Zn21         O37   2.019       .  S
Zn22         O25   1.938       .  S
Zn22         O27   1.977       .  S
Zn22         O29   1.995       .  S
Zn22         O33   1.982       .  S
Zn23         O25   1.962       .  S
Zn23         O28   2.019       .  S
Zn23         O31   2.023       .  S
Zn23         O34   1.986       .  S
Zn24         O25   1.968       .  S
Zn24         O32   2.023       .  S
Zn24         O35   2.057       .  S
Zn24         O36   2.038       .  S
O26          C38   1.275       .  A
O27          C39   1.267       .  A
O28          C40   1.273       .  A
O29          C38   1.269       .  A
O30          C40   1.273       .  A
O31          C39   1.273       .  A
O32          C41   1.274       .  A
O33          C42   1.268       .  A
O34          C41   1.269       .  A
O35          C42   1.276       .  A
O36          C43   1.278       .  A
O37          C43   1.273       .  A
C38         C623   1.477       .  S
C39         C687   1.475       .  S
C40         C870   1.476       .  S
C41         C847   1.471       .  S
C42         C655   1.482       .  S
C43         C815   1.478       .  S
C44          H45   1.072       .  S
C44          C50   1.518   1_565  S
C44        C1042   1.549       .  S
C44        C3027   1.534   1_455  S
C46          H47   1.099       .  S
C46          C53   1.587       .  S
C46        C1045   1.550   1_545  S
C46        C3030   1.575   1_445  S
C48        C3023   1.536       .  S
C48          C51   1.400       .  D
C48         C614   1.546       .  S
C49        C1037   1.560       .  S
C49          C52   1.377       .  D
C49         C678   1.495       .  S
C50          C53   1.378       .  D
C50         C646   1.513       .  S
C51        C3025   1.576       .  S
C51         C582   1.527       .  S
C52        C1039   1.547       .  S
C52         C518   1.530       .  S
C53         C559   1.523       .  S
C54          H55   1.098       .  S
C54          C60   1.579       .  S
C54          C59   1.555       .  S
C54          C58   1.582       .  S
C56          H57   1.087       .  S
C56          C62   1.542       .  S
C56          C61   1.528       .  S
C56          C63   1.543       .  S
C58          C61   1.376       .  D
C58         C527   1.528       .  S
C59          C62   1.378       .  D
C59         C550   1.524       .  S
C60          C63   1.401       .  D
C60         C591   1.538       .  S
C61         C495   1.501       .  S
C62         C463   1.503       .  S
C63         C422   1.538       .  S
C64          H65   1.113       .  S
C64          C70   1.519       .  S
C64          C69   1.518       .  S
C64          C68   1.517       .  S
C66          H67   1.092       .  S
C66          C72   1.578       .  S
C66          C71   1.570       .  S
C66          C73   1.572       .  S
C68          C71   1.377       .  D
C68         C271   1.484       .  S
C69          C72   1.386       .  D
C69         C303   1.498       .  S
C70          C73   1.382       .  D
C70         C239   1.483       .  S
C71         C358   1.521       .  S
C72         C326   1.522       .  S
C73         C390   1.530       .  S
C74          H75   1.111       .  S
C74          C79   1.560       .  S
C74        C3059   1.552       .  S
C74        C1071   1.557       .  S
C76          H77   1.104       .  S
C76          C82   1.547       .  S
C76        C1074   1.537       .  S
C76        C3062   1.541       .  S
C78        C1067   1.555   1_545  S
C78          C81   1.384       .  D
C78         C335   1.502       .  S
C79          C82   1.386       .  D
C79         C399   1.526       .  S
C80        C3053   1.564   1_445  S
C80          C83   1.385       .  D
C80         C367   1.512       .  S
C81        C1069   1.537   1_545  S
C81         C198   1.509       .  S
C82         C175   1.503       .  S
C83        C3055   1.543   1_445  S
C83         C134   1.511       .  S
Zn84         O88   1.977       .  S
Zn84         O89   2.089       .  S
Zn84         O93   2.069       .  S
Zn84        O100   2.070       .  S
Zn85         O88   1.931       .  S
Zn85         O90   1.959       .  S
Zn85         O92   1.967       .  S
Zn85         O96   1.984       .  S
Zn86         O88   1.961       .  S
Zn86         O91   2.007       .  S
Zn86         O94   2.029       .  S
Zn86         O97   1.998       .  S
Zn87         O88   1.958       .  S
Zn87         O95   2.017       .  S
Zn87         O98   2.038       .  S
Zn87         O99   1.994       .  S
O89         C101   1.283       .  A
O90         C102   1.266       .  A
O91         C103   1.272       .  A
O92         C101   1.265       .  A
O93         C103   1.280       .  A
O94         C102   1.273       .  A
O95         C104   1.271       .  A
O96         C105   1.265       .  A
O97         C104   1.273       .  A
O98         C105   1.276       .  A
O99         C106   1.271       .  A
O100        C106   1.282       .  A
C101        C783   1.490       .  S
C102        C751   1.470       .  S
C103        C207   1.491       .  S
C104        C166   1.491       .  S
C105        C710   1.492       .  S
C106        C143   1.489       .  S
Zn107       O111   1.935   1_556  S
Zn107       O116   1.977       .  S
Zn107      O3091   1.982       .  S
Zn107      O2109   1.977       .  S
Zn108      O3090   1.956   1_545  S
Zn108       O115   2.024       .  S
Zn108       O119   1.995       .  S
Zn108      O2099   1.999   1_455  S
Zn109       O111   1.966       .  S
Zn109       O114   2.048   1_554  S
Zn109       O120   2.030       .  S
Zn109      O1110   2.031       .  S
Zn110      O2097   1.965       .  S
Zn110       O122   2.028       .  S
Zn110      O2104   2.016   1_455  S
Zn110      O1114   2.009       .  S
O111      Zn3087   1.956       .  S
O111      Zn2096   1.955       .  S
O112      Zn3086   1.999   1_545  S
O112        C124   1.271       .  A
O113      Zn2094   2.002       .  S
O113        C125   1.272       .  A
O114        C126   1.277       .  A
O115        C124   1.272   1_554  A
O116        C126   1.266       .  A
O117      Zn1102   2.031   1_545  S
O117        C125   1.275       .  A
O118      Zn2096   1.992       .  S
O118        C127   1.270       .  A
O119        C128   1.270       .  A
O120        C127   1.275       .  A
O121      Zn1103   2.006   1_545  S
O121        C128   1.272       .  A
O122        C129   1.273   1_554  A
O123      Zn2093   1.984       .  S
O123        C129   1.270       .  A
C124        C454   1.487       .  S
C125        C294   1.482       .  S
C126        C431   1.475       .  S
C127        C230   1.475       .  S
C128        C262   1.468       .  S
C129        C486   1.471       .  S
C130        C131   1.393       .  A
C130        C135   1.402       .  A
C130        H140   1.086       .  S
C131        C136   1.486       .  S
C131        C132   1.411       .  A
C132        C133   1.410       .  A
C132        C137   1.518       .  S
C133        C134   1.414       .  A
C133        H138   1.083       .  S
C134        C135   1.432       .  A
C135       C1132   1.512       .  S
C136        C141   1.418       .  A
C136        C145   1.397       .  A
C137        F153   1.383       .  S
C137        F154   1.381       .  S
C137        F155   1.385       .  S
C139       C1128   1.517       .  S
C139        F150   1.385       .  S
C139        F151   1.381       .  S
C139        F152   1.373       .  S
C141        C142   1.411       .  A
C141        C146   1.519       .  S
C142        C143   1.404       .  A
C142        H147   1.083       .  S
C143        C144   1.426       .  A
C144        C145   1.407       .  A
C144        C148   1.521       .  S
C145        H149   1.083       .  S
C146        F159   1.384       .  S
C146        F160   1.382       .  S
C146        F161   1.382       .  S
C148        F156   1.384       .  S
C148        F157   1.381       .  S
C148        F158   1.385       .  S
C162        C163   1.399       .  A
C162        C167   1.408       .  A
C162        H172   1.083       .  S
C163        C168   1.473       .  S
C163        C164   1.412       .  A
C164        C165   1.399       .  A
C164        C169   1.521       .  S
C165        C166   1.409       .  A
C165        H170   1.084       .  S
C166        C167   1.426       .  A
C167        C171   1.520       .  S
C168        C173   1.407       .  A
C168        C177   1.395       .  A
C169        F185   1.383       .  S
C169        F186   1.382       .  S
C169        F187   1.384       .  S
C171        F182   1.385       .  S
C171        F183   1.383       .  S
C171        F184   1.381       .  S
C173        C174   1.402       .  A
C173        C178   1.517       .  S
C174        C175   1.411       .  A
C174        H179   1.078       .  S
C175        C176   1.427       .  A
C176        C177   1.400       .  A
C176        C180   1.515       .  S
C177        H181   1.085       .  S
C178        F191   1.385       .  S
C178        F192   1.382       .  S
C178        F193   1.383       .  S
C180        F188   1.385       .  S
C180        F189   1.383       .  S
C180        F190   1.367       .  S
C194        C195   1.398       .  A
C194        C199   1.409       .  A
C194        H204   1.083       .  S
C195        C200   1.490       .  S
C195        C196   1.415       .  A
C196        C197   1.409       .  A
C196        C201   1.519       .  S
C197        C198   1.408       .  A
C197       H2188   1.079       .  S
C198        C199   1.428       .  A
C199        C203   1.519   1_545  S
C200        C205   1.418       .  A
C200        C209   1.400       .  A
C201        F217   1.382       .  S
C201        F218   1.381       .  S
C201       F2205   1.385       .  S
H202       C2183   1.080       .  S
C203        F214   1.374       .  S
C203        F216   1.378       .  S
C203       F1208   1.385       .  S
C205        C206   1.413       .  A
C205        C210   1.520       .  S
C206        C207   1.407       .  A
C206        H211   1.083       .  S
C207        C208   1.422       .  A
C208        C209   1.407       .  A
C208        C212   1.520       .  S
C209        H213   1.083       .  S
C210        F223   1.385       .  S
C210        F224   1.382       .  S
C210        F225   1.382       .  S
C212        F220   1.383       .  S
C212        F221   1.382       .  S
C212        F222   1.385       .  S
F215       C1196   1.385       .  S
F219       C2187   1.385       .  S
C226        C227   1.399       .  A
C226        C231   1.403       .  A
C226        H236   1.084       .  S
C227        C232   1.476       .  S
C227        C228   1.416       .  A
C228        C229   1.407       .  A
C228        C233   1.520       .  S
C229        C230   1.403       .  A
C229        H234   1.083       .  S
C230        C231   1.419       .  A
C231        C235   1.520       .  S
C232        C237   1.414       .  A
C232        C241   1.399       .  A
C233        F249   1.382       .  S
C233        F250   1.382       .  S
C233        F251   1.384       .  S
C235        F246   1.385       .  S
C235        F247   1.383       .  S
C235        F248   1.382       .  S
C237        C238   1.403       .  A
C237        C242   1.520       .  S
C238        C239   1.405       .  A
C238        H243   1.083       .  S
C239        C240   1.418       .  A
C240        C241   1.401       .  A
C240        C244   1.515       .  S
C241        H245   1.085       .  S
C242        F255   1.385       .  S
C242        F256   1.382       .  S
C242        F257   1.382       .  S
C244        F252   1.382       .  S
C244        F253   1.375       .  S
C244        F254   1.384       .  S
C258        C259   1.400       .  A
C258        C263   1.404       .  A
C258        H268   1.083       .  S
C259        C264   1.474       .  S
C259        C260   1.416       .  A
C260        C261   1.403       .  A
C260        C265   1.521       .  S
C261        C262   1.401       .  A
C261        H266   1.083       .  S
C262        C263   1.417       .  A
C263        C267   1.520       .  S
C264        C269   1.413       .  A
C264        C273   1.397       .  A
C265        F281   1.382       .  S
C265        F282   1.382       .  S
C265        F283   1.385       .  S
C267        F278   1.382       .  S
C267        F279   1.385       .  S
C267        F280   1.384       .  S
C269        C270   1.403       .  A
C269        C274   1.519       .  S
C270        C271   1.404       .  A
C270        H275   1.083       .  S
C271        C272   1.419       .  A
C272        C273   1.399       .  A
C272        C276   1.515       .  S
C273        H277   1.085       .  S
C274        F287   1.385       .  S
C274        F288   1.382       .  S
C274        F289   1.382       .  S
C276        F284   1.381       .  S
C276        F285   1.376       .  S
C276        F286   1.384       .  S
C290        C291   1.402       .  A
C290        C295   1.407       .  A
C290        H300   1.083       .  S
C291        C296   1.487       .  S
C291        C292   1.417       .  A
C292        C293   1.408       .  A
C292        C297   1.520       .  S
C293        C294   1.405       .  A
C293        H298   1.083       .  S
C294        C295   1.419       .  A
C295       C1292   1.520   1_545  S
C296        C301   1.415       .  A
C296        C305   1.403       .  A
C297        F313   1.382       .  S
C297        F314   1.382       .  S
C297        F315   1.385       .  S
C299       C1288   1.520       .  S
C299        F310   1.382       .  S
C299        F311   1.385       .  S
C299        F312   1.384       .  S
C301        C302   1.405       .  A
C301        C306   1.521       .  S
C302        C303   1.407       .  A
C302        H307   1.082       .  S
C303        C304   1.420       .  A
C304        C305   1.408       .  A
C304        C308   1.516       .  S
C305        H309   1.084       .  S
C306        F319   1.385       .  S
C306        F320   1.381       .  S
C306        F321   1.382       .  S
C308        F316   1.381       .  S
C308        F317   1.379       .  S
C308        F318   1.384       .  S
C322        C323   1.405       .  A
C322        C327   1.419       .  A
C322        H332   1.083       .  S
C323        C328   1.501       .  S
C323        C324   1.414       .  A
C324        C325   1.407       .  A
C324        C329   1.522       .  S
C325        C326   1.412       .  A
C325        H330   1.079       .  S
C326        C327   1.427       .  A
C327        C331   1.517       .  S
C328        C333   1.421       .  A
C328        C337   1.403       .  A
C329        F345   1.385       .  S
C329        F346   1.381       .  S
C329        F347   1.383       .  S
C331        F342   1.379       .  S
C331        F343   1.385       .  S
C331        F344   1.380       .  S
C333        C334   1.415       .  A
C333        C338   1.518       .  S
C334        C335   1.406       .  A
C334        H339   1.082       .  S
C335        C336   1.419       .  A
C336        C337   1.406       .  A
C336        C340   1.513   1_545  S
C337        H341   1.085       .  S
C338        F351   1.385       .  S
C338        F352   1.381       .  S
C338        F353   1.382       .  S
C340        F348   1.382       .  S
C340        F349   1.379       .  S
C340        F350   1.384       .  S
C354        C355   1.409       .  A
C354        C359   1.421       .  A
C354        H364   1.082       .  S
C355        C360   1.502       .  S
C355        C356   1.416       .  A
C356        C357   1.407       .  A
C356        C361   1.521       .  S
C357        C358   1.412       .  A
C357        H362   1.082       .  S
C358        C359   1.423       .  A
C359        C363   1.517       .  S
C360        C365   1.418       .  A
C360        C369   1.403       .  A
C361        F377   1.384       .  S
C361        F378   1.383       .  S
C361        F379   1.381       .  S
C363        F374   1.378       .  S
C363        F375   1.385       .  S
C363        F376   1.380       .  S
C365        C366   1.415       .  A
C365        C370   1.516       .  S
C366        C367   1.409       .  A
C366        H371   1.083       .  S
C367        C368   1.425       .  A
C368        C369   1.411       .  A
C368        C372   1.516       .  S
C369        H373   1.084       .  S
C370        F383   1.381       .  S
C370        F384   1.384       .  S
C370        F385   1.385   1_545  S
C372        F380   1.383       .  S
C372        F381   1.379       .  S
C372        F382   1.384       .  S
C386        C387   1.407       .  A
C386        C391   1.423       .  A
C386        H396   1.082       .  S
C387        C392   1.511       .  S
C387        C388   1.417       .  A
C388        C389   1.411       .  A
C388        C393   1.521       .  S
C389        C390   1.412       .  A
C389        H394   1.081       .  S
C390        C391   1.428       .  A
C391        C395   1.517       .  S
C392        C397   1.422       .  A
C392        C401   1.398       .  A
C393        F409   1.381       .  S
C393        F410   1.383       .  S
C393        F411   1.385       .  S
C395        F406   1.385       .  S
C395        F407   1.380       .  S
C395        F408   1.377       .  S
C397        C398   1.423       .  A
C397        C402   1.516       .  S
C398        C399   1.410       .  A
C398        H403   1.082       .  S
C399        C400   1.428       .  A
C400        C401   1.411       .  A
C400        C404   1.513       .  S
C401        H405   1.083       .  S
C402        F415   1.385       .  S
C402        F416   1.382       .  S
C402        F417   1.383       .  S
C404        F412   1.374       .  S
C404       F2399   1.379       .  S
C404       F2400   1.385       .  S
F413       C2390   1.379       .  S
F414       C2390   1.385       .  S
C418        C419   1.391       .  A
C418        C423   1.399       .  A
C418        H428   1.086       .  S
C419        C424   1.478       .  S
C419        C420   1.411       .  A
C420        C421   1.411       .  A
C420        C425   1.515       .  S
C421        C422   1.413       .  A
C421        H426   1.076       .  S
C422        C423   1.434       .  A
C423        C427   1.522       .  S
C424        C429   1.421       .  A
C424        C433   1.401       .  A
C425        F441   1.383       .  S
C425        F442   1.382       .  S
C425        F443   1.382       .  S
C427        F438   1.376       .  S
C427        F439   1.387       .  S
C427        F440   1.382       .  S
C429        C430   1.402       .  A
C429        C434   1.521       .  S
C430        C431   1.398       .  A
C430        H435   1.085       .  S
C431        C432   1.420       .  A
C432        C433   1.408       .  A
C432        C436   1.520       .  S
C433        H437   1.083       .  S
C434        F447   1.384       .  S
C434        F448   1.383       .  S
C434        F449   1.380       .  S
C436        F444   1.385       .  S
C436        F445   1.384       .  S
C436        F446   1.382       .  S
C450        C451   1.402       .  A
C450        C455   1.410       .  A
C450        H460   1.083       .  S
C451        C456   1.485       .  S
C451        C452   1.414       .  A
C452        C453   1.404       .  A
C452        C457   1.519       .  S
C453        C454   1.406       .  A
C453        H458   1.083       .  S
C454        C455   1.422       .  A
C455        C459   1.519       .  S
C456        C461   1.415       .  A
C456        C465   1.397       .  A
C457        F473   1.382       .  S
C457        F474   1.380       .  S
C457        F475   1.385       .  S
C459        F470   1.384       .  S
C459        F471   1.383   1_556  S
C459        F472   1.384       .  S
C461        C462   1.410       .  A
C461        C466   1.518       .  S
C462        C463   1.407       .  A
C462        H467   1.083       .  S
C463        C464   1.422       .  A
C464        C465   1.402       .  A
C464        C468   1.512       .  S
C465        H469   1.085       .  S
C466        F479   1.384       .  S
C466        F480   1.382       .  S
C466        F481   1.382       .  S
C468        F476   1.381       .  S
C468        F477   1.370       .  S
C468        F478   1.384       .  S
C482        C483   1.403       .  A
C482        C487   1.409       .  A
C482        H492   1.083       .  S
C483        C488   1.476       .  S
C483        C484   1.414       .  A
C484        C485   1.399       .  A
C484        C489   1.521       .  S
C485        C486   1.401       .  A
C485        H490   1.084       .  S
C486        C487   1.417       .  A
C487        C491   1.518       .  S
C488        C493   1.411       .  A
C488        C497   1.393       .  A
C489        F505   1.382       .  S
C489        F506   1.382       .  S
C489        F507   1.384   1_455  S
C491        F502   1.385       .  S
C491        F503   1.382   1_556  S
C491        F504   1.383       .  S
C493        C494   1.406       .  A
C493        C498   1.518       .  S
C494        C495   1.411       .  A
C494        H499   1.082       .  S
C495        C496   1.428       .  A
C496        C497   1.399       .  A
C496        C500   1.513       .  S
C497        H501   1.085       .  S
C498        F511   1.385       .  S
C498        F512   1.382       .  S
C498        F513   1.382       .  S
C500        F508   1.382       .  S
C500        F509   1.364       .  S
C500        F510   1.384       .  S
C514        C515   1.405       .  A
C514        C519   1.420       .  A
C514        H524   1.083       .  S
C515        C520   1.508       .  S
C515        C516   1.416       .  A
C516        C517   1.414       .  A
C516        C521   1.519       .  S
C517        C518   1.412       .  A
C517        H522   1.080   1_455  S
C518        C519   1.430       .  A
C519       C1516   1.518       .  S
C520        C525   1.417       .  A
C520        C529   1.401       .  A
C521        F537   1.382   1_455  S
C521        F538   1.382       .  S
C521       F2525   1.385   1_455  S
C523       C1512   1.518       .  S
C523        F534   1.384   1_565  S
C523        F535   1.381   1_565  S
C523        F536   1.379   1_565  S
C525        C526   1.410       .  A
C525        C530   1.511       .  S
C526        C527   1.396       .  A
C526        H531   1.059       .  S
C527        C528   1.434       .  A
C528        C529   1.415       .  A
C528        C532   1.515       .  S
C529        H533   1.084       .  S
C530        F543   1.385       .  S
C530        F544   1.382       .  S
C530        F545   1.380       .  S
C532        F540   1.382       .  S
C532        F541   1.376       .  S
C532        F542   1.384       .  S
F539       C2507   1.385       .  S
C546        C547   1.400       .  A
C546        C551   1.415       .  A
C546        H556   1.083       .  S
C547        C552   1.500       .  S
C547        C548   1.415       .  A
C548        C549   1.411       .  A
C548        C553   1.519       .  S
C549        C550   1.412       .  A
C549        H554   1.082       .  S
C550        C551   1.430       .  A
C551        C555   1.516       .  S
C552        C557   1.417       .  A
C552        C561   1.394       .  A
C553        F569   1.382       .  S
C553        F570   1.382       .  S
C553        F571   1.385       .  S
C555        F566   1.385       .  S
C555        F567   1.380       .  S
C555        F568   1.373       .  S
C557        C558   1.415       .  A
C557        C562   1.516       .  S
C558        C559   1.403       .  A
C558       H2549   1.069       .  S
C559        C560   1.435       .  A
C560        C561   1.407       .  A
C560        C564   1.513       .  S
C561        H565   1.084       .  S
C562        F576   1.381       .  S
C562        F577   1.381       .  S
C562       F2561   1.384       .  S
H563       C2544   1.065       .  S
C564        F572   1.382       .  S
C564        F573   1.368       .  S
C564        F574   1.384       .  S
F575       C2548   1.385       .  S
C578        C579   1.403       .  A
C578        C583   1.414       .  A
C578        H588   1.078       .  S
C579        C584   1.511       .  S
C579        C580   1.423       .  A
C580        C581   1.417       .  A
C580        C585   1.517       .  S
C581        C582   1.412       .  A
C581        H586   1.085       .  S
C582        C583   1.423       .  A
C583       C1580   1.510       .  S
C584        C589   1.421       .  A
C584        C593   1.403       .  A
C585        F601   1.380       .  S
C585        F602   1.383       .  S
C585        F603   1.384       .  S
C587       C1576   1.508   1_545  S
C587        F599   1.383       .  S
C587        F600   1.380       .  S
C587       F1591   1.385       .  S
C589        C590   1.416       .  A
C589        C594   1.517       .  S
C590        C591   1.412       .  A
C590        H595   1.075       .  S
C591        C592   1.427       .  A
C592        C593   1.417       .  A
C592        C596   1.504       .  S
C593        H597   1.080       .  S
C594        F607   1.384       .  S
C594        F608   1.380       .  S
C594        F609   1.383       .  S
C596        F604   1.385       .  S
C596        F605   1.383       .  S
C596        F606   1.380       .  S
F598       C1580   1.385       .  S
C610        C611   1.388       .  A
C610        C615   1.404       .  A
C610        H620   1.084       .  S
C611        C616   1.483       .  S
C611        C612   1.406       .  A
C612        C613   1.410       .  A
C612        C617   1.518       .  S
C613        C614   1.418       .  A
C613        H618   1.076       .  S
C614        C615   1.448       .  A
C615       C1612   1.527       .  S
C616        C621   1.419       .  A
C616        C625   1.401       .  A
C617        F633   1.383       .  S
C617        F634   1.382       .  S
C617        F635   1.384       .  S
C619       C1608   1.527       .  S
C619        F630   1.386       .  S
C619        F632   1.383   1_565  S
C619       F1624   1.382       .  S
C621        C622   1.404       .  A
C621        C626   1.521       .  S
C622        C623   1.401       .  A
C622        H627   1.083       .  S
C623        C624   1.420       .  A
C624        C625   1.407       .  A
C624        C628   1.520       .  S
C625        H629   1.083       .  S
C626        F639   1.385       .  S
C626        F641   1.381       .  S
C626       F1633   1.381       .  S
C628        F636   1.384       .  S
C628        F637   1.384       .  S
C628        F638   1.383       .  S
F631       C1612   1.378       .  S
F640       C1619   1.380       .  S
C642        C643   1.392       .  A
C642        C647   1.401       .  A
C642        H652   1.086       .  S
C643        C648   1.485       .  S
C643        C644   1.413       .  A
C644        C645   1.412       .  A
C644        C649   1.518       .  S
C645        C646   1.413       .  A
C645       H2636   1.083       .  S
C646        C647   1.433       .  A
C647        C651   1.514       .  S
C648        C653   1.417       .  A
C648        C657   1.404       .  A
C649        F666   1.381       .  S
C649       F2651   1.383       .  S
C649       F2653   1.385       .  S
H650       C2631   1.082       .  S
C651        F662   1.384       .  S
C651        F663   1.384       .  S
C651        F664   1.361       .  S
C653        C654   1.405       .  A
C653        C658   1.521       .  S
C654        C655   1.403       .  A
C654        H659   1.083       .  S
C655        C656   1.418       .  A
C656        C657   1.412       .  A
C656        C660   1.518       .  S
C657        H661   1.083       .  S
C658        F671   1.385       .  S
C658        F672   1.381       .  S
C658        F673   1.381       .  S
C660        F668   1.383       .  S
C660        F669   1.383       .  S
C660        F670   1.385       .  S
F665       C2635   1.383       .  S
F667       C2635   1.385       .  S
C674        C675   1.397       .  A
C674        C679   1.399       .  A
C674        H684   1.085       .  S
C675        C680   1.477       .  S
C675        C676   1.411       .  A
C676        C677   1.405   1_455  A
C676        C681   1.518   1_455  S
C677        C678   1.405   1_655  A
C677       H2668   1.084       .  S
C678        C679   1.428       .  A
C679       C1676   1.520       .  S
C680        C685   1.418       .  A
C680        C689   1.399       .  A
C681        F697   1.382       .  S
C681        F698   1.383       .  S
C681       F2685   1.385       .  S
H682       C2663   1.084       .  S
C683       C1672   1.521       .  S
C683        F694   1.380   1_565  S
C683        F695   1.376       .  S
C683        F696   1.371       .  S
C685        C686   1.404       .  A
C685        C690   1.520       .  S
C686        C687   1.401       .  A
C686        H691   1.083       .  S
C687        C688   1.420       .  A
C688        C689   1.402       .  A
C688        C692   1.520       .  S
C689        H693   1.083       .  S
C690        F703   1.384       .  S
C690        F704   1.382       .  S
C690        F705   1.383       .  S
C692        F700   1.382       .  S
C692        F701   1.384       .  S
C692        F702   1.385       .  S
F699       C2667   1.385       .  S
C706        C707   1.397       .  A
C706        C711   1.408       .  A
C706        H716   1.083       .  S
C707        C712   1.480       .  S
C707        C708   1.414       .  A
C708        C709   1.404       .  A
C708        C713   1.520       .  S
C709        C710   1.406       .  A
C709        H714   1.082       .  S
C710        C711   1.430       .  A
C711        C715   1.522       .  S
C712        C717   1.412       .  A
C712        C721   1.399       .  A
C713        F729   1.382       .  S
C713        F730   1.381       .  S
C713        F731   1.385       .  S
C715        F726   1.382       .  S
C715        F727   1.385       .  S
C715        F728   1.383       .  S
C717        C718   1.405       .  A
C717        C722   1.519       .  S
C718        C719   1.408       .  A
C718        H723   1.080       .  S
C719        C720   1.420       .  A
C720        C721   1.405       .  A
C720        C724   1.514       .  S
C721        H725   1.084       .  S
C722        F735   1.385       .  S
C722        F736   1.383       .  S
C722        F737   1.382       .  S
C724        F732   1.385       .  S
C724        F733   1.382       .  S
C724        F734   1.380       .  S
C738        C739   1.395       .  A
C738        C743   1.404       .  A
C738        H748   1.084       .  S
C739        C744   1.475       .  S
C739        C740   1.410       .  A
C740        C741   1.403       .  A
C740        C745   1.520       .  S
C741        C742   1.412       .  A
C741        H746   1.080       .  S
C742        C743   1.433       .  A
C743        C747   1.517       .  S
C744        C749   1.415       .  A
C744       C2739   1.398   1_455  A
C745        F761   1.381   1_455  S
C745        F762   1.379       .  S
C745        F763   1.383       .  S
C747        F758   1.382       .  S
C747        F759   1.385       .  S
C747        F760   1.369       .  S
C749       C2736   1.409   1_455  A
C749        C754   1.519       .  S
C750        C751   1.406       .  A
C750       C2735   1.409       .  A
C750        H755   1.083       .  S
C751        C752   1.417       .  A
C752        C753   1.395       .  A
C752        C756   1.521       .  S
C753       C2730   1.397       .  A
C753        H757   1.084       .  S
C754        F767   1.384       .  S
C754        F768   1.382       .  S
C754        F769   1.380       .  S
C756        F764   1.384       .  S
C756        F765   1.383       .  S
C756        F766   1.385       .  S
C770        C771   1.392       .  A
C770        C775   1.397       .  A
C770        H780   1.084       .  S
C771        C776   1.482       .  S
C771        C772   1.415       .  A
C772        C773   1.413       .  A
C772        C777   1.516       .  S
C773        C774   1.410       .  A
C773        H778   1.082       .  S
C774        C775   1.423       .  A
C775        C779   1.509       .  S
C776        C781   1.418       .  A
C776       C1778   1.398       .  A
C777        F795   1.385       .  S
C777       F1786   1.382       .  S
C777       F1787   1.382       .  S
C779        F790   1.376       .  S
C779        F791   1.386       .  S
C779        F792   1.377       .  S
C781       C1775   1.409       .  A
C781        C786   1.519       .  S
C782        C783   1.404       .  A
C782       C1774   1.410       .  A
C782        H787   1.083       .  S
C783        C784   1.428       .  A
C784        C785   1.406       .  A
C784        C788   1.522       .  S
C785       C1769   1.398       .  A
C785        H789   1.082       .  S
C786        F799   1.384       .  S
C786        F800   1.382       .  S
C786        F801   1.382       .  S
C788        F796   1.385       .  S
C788        F797   1.383       .  S
C788        F798   1.383       .  S
F793       C1770   1.381   1_545  S
F794       C1770   1.382   1_545  S
C802        C803   1.392       .  A
C802        C807   1.404       .  A
C802        H812   1.083       .  S
C803        C808   1.486       .  S
C803        C804   1.412       .  A
C804        C805   1.413       .  A
C804        C809   1.516       .  S
C805        C806   1.412       .  A
C805        H810   1.078       .  S
C806        C807   1.430       .  A
C807        C811   1.509       .  S
C808        C813   1.419       .  A
C808        C817   1.407       .  A
C809        F825   1.383       .  S
C809        F826   1.382       .  S
C809        F827   1.384       .  S
C811        F822   1.375       .  S
C811        F823   1.385       .  S
C811        F824   1.376       .  S
C813        C814   1.402       .  A
C813        C818   1.517       .  S
C814        C815   1.399       .  A
C814        H819   1.085       .  S
C815        C816   1.415       .  A
C816        C817   1.412       .  A
C816        C820   1.517       .  S
C817        H821   1.083       .  S
C818        F831   1.383       .  S
C818        F832   1.383       .  S
C818        F833   1.379       .  S
C820        F828   1.385       .  S
C820        F829   1.383       .  S
C820        F830   1.383       .  S
C834        C835   1.401       .  A
C834        C839   1.407       .  A
C834        H844   1.085       .  S
C835        C840   1.487       .  S
C835        C836   1.415       .  A
C836        C837   1.410       .  A
C836        C841   1.520       .  S
C837        C838   1.410       .  A
C837        H842   1.081       .  S
C838        C839   1.423       .  A
C839        C843   1.513       .  S
C840        C849   1.401       .  A
C840       C2831   1.419       .  A
C841        F857   1.382       .  S
C841        F859   1.384       .  S
C841       F2844   1.381       .  S
C843        F854   1.377       .  S
C843        F855   1.384       .  S
C843        F856   1.369       .  S
C845        C846   1.405       .  A
C845       C2826   1.419   1_455  A
C845        C850   1.517       .  S
C846        C847   1.399       .  A
C846        H851   1.083       .  S
C847        C848   1.417       .  A
C848       C2835   1.404   1_455  A
C848        C852   1.520       .  S
C849       C2834   1.406       .  A
C849        H853   1.083       .  S
C850        F863   1.385       .  S
C850        F864   1.382       .  S
C850        F865   1.380       .  S
C852        F861   1.384       .  S
C852        F862   1.385   1_455  S
C852       F2846   1.382       .  S
F858       C2827   1.381       .  S
F860       C2838   1.382       .  S
C866        C867   1.405       .  A
C866       C1864   1.408   1_545  A
C866        H876   1.083       .  S
C867        C872   1.482       .  S
C867       C1861   1.418   1_545  A
C868        C869   1.407       .  A
C868       C1860   1.418       .  A
C868        C873   1.521       .  S
C869        C870   1.402       .  A
C869        H874   1.083       .  S
C870        C871   1.414       .  A
C871       C1859   1.409       .  A
C871        C875   1.517       .  S
C872        C877   1.411       .  A
C872        C881   1.396       .  A
C873        F889   1.382       .  S
C873        F890   1.380       .  S
C873        F891   1.385       .  S
C875        F887   1.383       .  S
C875        F888   1.383       .  S
C875       F1879   1.384       .  S
C877        C878   1.407       .  A
C877        C882   1.520       .  S
C878        C879   1.403       .  A
C878        H883   1.066       .  S
C879        C880   1.422       .  A
C880        C881   1.402       .  A
C880        C884   1.505       .  S
C881        H885   1.085       .  S
C882        F895   1.384       .  S
C882        F896   1.382       .  S
C882        F897   1.382       .  S
C884        F892   1.381       .  S
C884        F893   1.370       .  S
C884        F894   1.385       .  S
F886       C1868   1.384       .  S
C898        C899   1.399       .  A
C898        C903   1.406       .  A
C898        H908   1.079       .  S
C899        C904   1.516       .  S
C899        C900   1.428       .  A
C900        C901   1.415       .  A
C900        C905   1.519       .  S
C901        C902   1.409       .  A
C901        H906   1.081       .  S
C902        C903   1.428       .  A
C903        C907   1.505       .  S
C904        C909   1.427       .  A
C904        C913   1.400       .  A
C905        F921   1.383       .  S
C905        F922   1.383       .  S
C905        F923   1.384       .  S
C907        F918   1.385       .  S
C907        F919   1.379       .  S
C907        F920   1.365       .  S
C909        C910   1.414       .  A
C909        C914   1.522       .  S
C910        C911   1.409       .  A
C910        H915   1.075       .  S
C911        C912   1.429       .  A
C912        C913   1.412       .  A
C912        C916   1.499       .  S
C913        H917   1.082       .  S
C914        F927   1.385       .  S
C914        F928   1.383       .  S
C914        F929   1.381       .  S
C916        F924   1.386       .  S
C916        F925   1.380       .  S
C916        F926   1.375       .  S
C930        C931   1.403       .  A
C930        C935   1.417       .  A
C930        H940   1.083       .  S
C931       C1929   1.499       .  S
C931        C932   1.413       .  A
C932        C933   1.412       .  A
C932       C1930   1.518       .  S
C933        C934   1.413       .  A
C933        H938   1.078       .  S
C934        C935   1.426       .  A
C935        C939   1.512       .  S
C936       C1924   1.500   1_545  S
C936        C941   1.414       .  A
C936        C945   1.406       .  A
C937       C1925   1.521       .  S
C937        F953   1.382   1_565  S
C937        F954   1.379   1_565  S
C937       F1948   1.385       .  S
C939        F950   1.385       .  S
C939        F951   1.376       .  S
C939        F952   1.380       .  S
C941        C942   1.410       .  A
C941       C1939   1.522       .  S
C942        C943   1.408       .  A
C942        H947   1.078       .  S
C943        C944   1.424       .  A
C944        C945   1.419       .  A
C944        C948   1.520       .  S
C945        H949   1.082       .  S
C946       C1934   1.518       .  S
C946        F960   1.381       .  S
C946        F961   1.383       .  S
C946       F1952   1.382       .  S
C948        F956   1.384       .  S
C948        F957   1.377       .  S
C948        F958   1.381       .  S
F955       C1930   1.385       .  S
F959       C1939   1.384       .  S
C962        C963   1.395       .  A
C962        C967   1.408       .  A
C962        H972   1.085       .  S
C963       C2954   1.494       .  S
C963        C964   1.412       .  A
C964        C965   1.415       .  A
C964        C969   1.518       .  S
C965        C966   1.406       .  A
C965        H970   1.060       .  S
C966        C967   1.434       .  A
C967        C971   1.507       .  S
C968       C2949   1.500   1_455  S
C968        C973   1.417       .  A
C968        C977   1.399       .  A
C969        F985   1.382       .  S
C969        F986   1.382       .  S
C969        F987   1.384       .  S
C971        F982   1.378       .  S
C971        F983   1.384       .  S
C971        F984   1.363       .  S
C973        C974   1.413       .  A
C973        C978   1.514       .  S
C974        C975   1.406       .  A
C974        H979   1.083       .  S
C975        C976   1.433       .  A
C976        C977   1.409       .  A
C976        C980   1.518       .  S
C977        H981   1.085       .  S
C978        F991   1.384       .  S
C978        F992   1.382       .  S
C978        F993   1.381       .  S
C980        F988   1.384       .  S
C980        F989   1.375       .  S
C980        F990   1.382       .  S
C994        H995   1.105       .  S
C994       C1000   1.546       .  S
C994        C999   1.557       .  S
C994        C998   1.535       .  S
C996        H997   1.103       .  S
C996       C1002   1.555       .  S
C996       C1001   1.591       .  S
C996       C1003   1.575       .  S
C998       C1001   1.388       .  D
C998       C1831   1.507       .  S
C999       C1002   1.377       .  D
C999       C1872   1.516       .  S
C1000      C1003   1.388       .  D
C1000      C1799   1.525       .  S
C1001      C1959   1.545       .  S
C1002      C1936   1.514       .  S
C1003      C1904   1.536       .  S
C1004      H1005   1.108       .  S
C1004      C1010   1.574       .  S
C1004      C1009   1.565       .  S
C1004      C1008   1.561       .  S
C1006      H1007   1.096       .  S
C1006      C1012   1.536       .  S
C1006      C1011   1.547       .  S
C1006      C1013   1.530       .  S
C1008      C1011   1.382       .  D
C1008      C1895   1.525       .  S
C1009      C1012   1.385       .  D
C1009      C1968   1.512       .  S
C1010      C1013   1.375       .  D
C1010      C1927   1.520       .  S
C1011      C1712   1.499       .  S
C1012      C1735   1.510       .  S
C1013      C1767   1.508       .  S
Zn1014     O1018   1.961       .  S
Zn1014     O1019   2.029       .  S
Zn1014     O1023   2.009       .  S
Zn1014     O1030   2.011       .  S
Zn1015     O1018   1.945       .  S
Zn1015     O1020   1.991       .  S
Zn1015     O1022   2.012       .  S
Zn1015     O1026   1.979       .  S
Zn1016     O1018   1.961       .  S
Zn1016     O1021   1.997       .  S
Zn1016     O1024   2.005       .  S
Zn1016     O1027   1.989       .  S
Zn1017     O1018   1.975       .  S
Zn1017     O1025   2.047       .  S
Zn1017     O1028   2.068       .  S
Zn1017     O1029   2.062       .  S
O1019      C1031   1.274       .  A
O1020      C1032   1.269       .  A
O1021      C1033   1.270       .  A
O1022      C1031   1.271       .  A
O1023      C1033   1.272       .  A
O1024      C1032   1.270       .  A
O1025      C1034   1.276       .  A
O1026      C1035   1.269       .  A
O1027      C1034   1.268       .  A
O1028      C1035   1.280       .  A
O1029      C1036   1.281       .  A
O1030      C1036   1.272       .  A
C1031      C1616   1.482       .  S
C1032      C1680   1.468       .  S
C1033      C1863   1.462       .  S
C1034      C1840   1.486       .  S
C1035      C1648   1.481       .  S
C1036      C1808   1.484       .  S
C1037      H1038   1.074       .  S
C1037      C1043   1.523       .  S
C1037      C2034   1.539   1_455  S
C1039      H1040   1.096       .  S
C1039      C2037   1.575   1_455  S
C1039      C1046   1.583       .  S
C1041      C2030   1.539       .  S
C1041      C1044   1.403       .  D
C1041      C1607   1.544       .  S
C1042      C1045   1.376       .  D
C1042      C1671   1.492       .  S
C1043      C1046   1.380       .  D
C1043      C1639   1.517       .  S
C1044      C2032   1.579   1_565  S
C1044      C1575   1.538       .  S
C1045      C1511   1.526       .  S
C1046      C1552   1.523       .  S
C1047      H1048   1.100       .  S
C1047      C1053   1.580       .  S
C1047      C1052   1.558       .  S
C1047      C1051   1.585       .  S
C1049      H1050   1.088       .  S
C1049      C1055   1.541       .  S
C1049      C1054   1.526       .  S
C1049      C1056   1.542       .  S
C1051      C1054   1.375       .  D
C1051      C1520   1.525       .  S
C1052      C1055   1.381       .  D
C1052      C1543   1.530       .  S
C1053      C1056   1.400       .  D
C1053      C1584   1.543       .  S
C1054      C1488   1.503       .  S
C1055      C1456   1.499       .  S
C1056      C1415   1.534       .  S
C1057      H1058   1.112       .  S
C1057      C1063   1.523       .  S
C1057      C1062   1.524       .  S
C1057      C1061   1.517       .  S
C1059      H1060   1.093       .  S
C1059      C1065   1.569       .  S
C1059      C1064   1.562       .  S
C1059      C1066   1.572       .  S
C1061      C1064   1.377       .  D
C1061      C1264   1.487       .  S
C1062      C1065   1.386       .  D
C1062      C1296   1.493       .  S
C1063      C1066   1.382       .  D
C1063      C1232   1.495       .  S
C1064      C1351   1.510       .  S
C1065      C1319   1.522       .  S
C1066      C1383   1.520       .  S
C1067      H1068   1.111       .  S
C1067      C2066   1.549   1_565  S
C1067      C1072   1.559       .  S
C1069      H1070   1.106       .  S
C1069      C1075   1.542       .  S
C1069      C2069   1.543   1_565  S
C1071      C1074   1.384       .  D
C1071      C1328   1.500       .  S
C1072      C1075   1.383       .  D
C1072      C1392   1.518       .  S
C1073      C2060   1.554       .  S
C1073      C1076   1.379       .  D
C1073      C1360   1.505       .  S
C1074      C1191   1.513       .  S
C1075      C1168   1.500       .  S
C1076      C2062   1.538       .  S
C1076      C1127   1.501       .  S
Zn1077     O1081   1.973       .  S
Zn1077     O1082   2.074       .  S
Zn1077     O1086   2.051       .  S
Zn1077     O1093   2.052       .  S
Zn1078     O1081   1.929       .  S
Zn1078     O1083   1.965       .  S
Zn1078     O1085   1.960       .  S
Zn1078     O1089   1.970       .  S
Zn1079     O1081   1.958       .  S
Zn1079     O1084   2.010       .  S
Zn1079     O1087   2.040       .  S
Zn1079     O1090   2.003       .  S
Zn1080     O1081   1.964       .  S
Zn1080     O1088   2.013       .  S
Zn1080     O1091   2.037       .  S
Zn1080     O1092   2.008       .  S
O1082      C1094   1.281       .  A
O1083      C1095   1.265       .  A
O1084      C1096   1.272       .  A
O1085      C1094   1.265       .  A
O1086      C1096   1.278       .  A
O1087      C1095   1.274       .  A
O1088      C1097   1.271       .  A
O1089      C1098   1.264       .  A
O1090      C1097   1.274       .  A
O1091      C1098   1.276       .  A
O1092      C1099   1.272       .  A
O1093      C1099   1.279       .  A
C1094      C1776   1.483       .  S
C1095      C1744   1.479       .  S
C1096      C1200   1.487       .  S
C1097      C1159   1.486       .  S
C1098      C1703   1.486       .  S
C1099      C1136   1.489       .  S
Zn1100     O1104   1.937   1_546  S
Zn1100     O2098   1.985       .  S
Zn1100     O1109   1.980   1_545  S
Zn1100     O3102   1.973   1_545  S
Zn1101     O2097   1.965       .  S
Zn1101     O3092   2.004   1_455  S
Zn1101     O1108   2.026       .  S
Zn1101     O1112   2.009       .  S
Zn1102     O1104   1.963       .  S
Zn1102     O1107   2.040   1_554  S
Zn1102     O1113   2.042       .  S
Zn1103     O3090   1.960       .  S
Zn1103     O3097   2.009   1_455  S
Zn1103     O1115   2.029       .  S
O1104     Zn2094   1.956   1_565  S
O1104     Zn3089   1.960       .  S
O1105     Zn2093   1.985       .  S
O1105      C1117   1.271       .  A
O1106     Zn3087   1.998       .  S
O1106      C1118   1.272       .  A
O1107      C1119   1.277       .  A
O1108      C1117   1.272   1_554  A
O1109      C1119   1.267       .  A
O1110      C1118   1.275       .  A
O1111     Zn3089   2.008       .  S
O1111      C1120   1.272       .  A
O1112      C1121   1.271       .  A
O1113      C1120   1.277       .  A
O1114      C1121   1.271       .  A
O1115      C1122   1.273   1_554  A
O1116     Zn3086   1.986       .  S
O1116      C1122   1.270       .  A
C1117      C1447   1.481       .  S
C1118      C1287   1.481       .  S
C1119      C1424   1.472       .  S
C1120      C1223   1.488       .  S
C1121      C1255   1.471       .  S
C1122      C1479   1.477       .  S
C1123      C1124   1.399       .  A
C1123      C1128   1.405       .  A
C1123      H1133   1.085       .  S
C1124      C1129   1.487       .  S
C1124      C1125   1.413       .  A
C1125      C1126   1.408       .  A
C1125      C1130   1.518       .  S
C1126      C1127   1.408       .  A
C1126      H1131   1.083       .  S
C1127      C1128   1.428       .  A
C1129      C1134   1.418       .  A
C1129      C1138   1.399       .  A
C1130      F1146   1.385       .  S
C1130      F1147   1.382       .  S
C1130      F1148   1.382       .  S
C1132      F1143   1.385   1_545  S
C1132      F1144   1.382       .  S
C1132      F1145   1.361       .  S
C1134      C1135   1.410       .  A
C1134      C1139   1.520       .  S
C1135      C1136   1.404       .  A
C1135      H1140   1.083       .  S
C1136      C1137   1.426       .  A
C1137      C1138   1.409       .  A
C1137      C1141   1.522       .  S
C1138      H1142   1.083       .  S
C1139      F1152   1.384       .  S
C1139      F1153   1.382       .  S
C1139      F1154   1.382       .  S
C1141      F1149   1.384       .  S
C1141      F1150   1.382       .  S
C1141      F1151   1.385       .  S
C1155      C1156   1.401       .  A
C1155      C1160   1.408       .  A
C1155      H1165   1.083       .  S
C1156      C1161   1.473       .  S
C1156      C1157   1.414       .  A
C1157      C1158   1.398       .  A
C1157      C1162   1.521       .  S
C1158      C1159   1.406       .  A
C1158      H1163   1.085       .  S
C1159      C1160   1.423       .  A
C1160      C1164   1.519       .  S
C1161      C1166   1.408       .  A
C1161      C1170   1.395       .  A
C1162      F1178   1.384       .  S
C1162      F1179   1.382       .  S
C1162      F1180   1.384       .  S
C1164      F1175   1.385       .  S
C1164      F1176   1.383       .  S
C1164      F1177   1.383       .  S
C1166      C1167   1.402       .  A
C1166      C1171   1.517       .  S
C1167      C1168   1.410       .  A
C1167      H1172   1.079       .  S
C1168      C1169   1.427       .  A
C1169      C1170   1.400       .  A
C1169      C1173   1.515       .  S
C1170      H1174   1.085       .  S
C1171      F1184   1.385       .  S
C1171      F1185   1.382       .  S
C1171      F1186   1.383       .  S
C1173      F1181   1.385       .  S
C1173      F1182   1.383       .  S
C1173      F1183   1.367       .  S
C1187      C1188   1.398       .  A
C1187      C1192   1.409       .  A
C1187      H1197   1.083       .  S
C1188      C1193   1.491       .  S
C1188      C1189   1.414       .  A
C1189      C1190   1.411       .  A
C1189      C1194   1.520       .  S
C1190      C1191   1.411       .  A
C1190      H3181   1.078       .  S
C1191      C1192   1.428       .  A
C1192      C1196   1.518       .  S
C1193      C1198   1.418       .  A
C1193      C1202   1.402       .  A
C1194      F1210   1.382       .  S
C1194      F1211   1.382       .  S
C1194      F3198   1.385       .  S
H1195      C3176   1.079       .  S
C1196      F1207   1.374       .  S
C1196      F1209   1.379       .  S
C1198      C1199   1.411       .  A
C1198      C1203   1.520       .  S
C1199      C1200   1.405       .  A
C1199      H1204   1.083       .  S
C1200      C1201   1.420       .  A
C1201      C1202   1.409       .  A
C1201      C1205   1.520       .  S
C1202      H1206   1.083       .  S
C1203      F1216   1.385       .  S
C1203      F1217   1.382       .  S
C1203      F1218   1.382       .  S
C1205      F1213   1.384       .  S
C1205      F1214   1.382       .  S
C1205      F1215   1.385       .  S
F1212      C3180   1.385       .  S
C1219      C1220   1.398       .  A
C1219      C1224   1.405       .  A
C1219      H1229   1.083       .  S
C1220      C1225   1.486       .  S
C1220      C1221   1.417       .  A
C1221      C1222   1.411       .  A
C1221      C1226   1.519       .  S
C1222      C1223   1.406       .  A
C1222      H1227   1.083       .  S
C1223      C1224   1.424       .  A
C1224      C1228   1.520       .  S
C1225      C1230   1.416       .  A
C1225      C1234   1.401       .  A
C1226      F1242   1.382       .  S
C1226      F1243   1.383       .  S
C1226      F1244   1.385       .  S
C1228      F1239   1.385       .  S
C1228      F1240   1.382       .  S
C1228      F1241   1.383       .  S
C1230      C1231   1.404       .  A
C1230      C1235   1.520       .  S
C1231      C1232   1.404       .  A
C1231      H1236   1.083       .  S
C1232      C1233   1.422       .  A
C1233      C1234   1.407       .  A
C1233      C1237   1.515       .  S
C1234      H1238   1.084       .  S
C1235      F1248   1.385       .  S
C1235      F1249   1.381       .  S
C1235      F1250   1.383       .  S
C1237      F1245   1.380       .  S
C1237      F1246   1.375       .  S
C1237      F1247   1.385       .  S
C1251      C1252   1.400       .  A
C1251      C1256   1.405       .  A
C1251      H1261   1.083       .  S
C1252      C1257   1.477       .  S
C1252      C1253   1.416       .  A
C1253      C1254   1.405       .  A
C1253      C1258   1.521       .  S
C1254      C1255   1.401       .  A
C1254      H1259   1.083       .  S
C1255      C1256   1.417       .  A
C1256      C1260   1.518       .  S
C1257      C1262   1.413       .  A
C1257      C1266   1.398       .  A
C1258      F1274   1.382       .  S
C1258      F1275   1.382       .  S
C1258      F1276   1.384       .  S
C1260      F1271   1.382       .  S
C1260      F1272   1.385       .  S
C1260      F1273   1.382       .  S
C1262      C1263   1.402       .  A
C1262      C1267   1.518       .  S
C1263      C1264   1.402       .  A
C1263      H1268   1.082       .  S
C1264      C1265   1.421       .  A
C1265      C1266   1.402       .  A
C1265      C1269   1.515       .  S
C1266      H1270   1.085       .  S
C1267      F1280   1.385       .  S
C1267      F1281   1.382       .  S
C1267      F1282   1.382       .  S
C1269      F1277   1.382       .  S
C1269      F1278   1.374       .  S
C1269      F1279   1.384       .  S
C1283      C1284   1.402       .  A
C1283      C1288   1.407       .  A
C1283      H1293   1.083       .  S
C1284      C1289   1.482       .  S
C1284      C1285   1.415       .  A
C1285      C1286   1.406       .  A
C1285      C1290   1.519       .  S
C1286      C1287   1.405       .  A
C1286      H1291   1.083       .  S
C1287      C1288   1.420       .  A
C1289      C1294   1.416       .  A
C1289      C1298   1.403       .  A
C1290      F1306   1.382       .  S
C1290      F1307   1.383       .  S
C1290      F1308   1.385       .  S
C1292      F1303   1.383       .  S
C1292      F1304   1.384       .  S
C1292      F1305   1.384       .  S
C1294      C1295   1.401       .  A
C1294      C1299   1.520       .  S
C1295      C1296   1.406       .  A
C1295      H1300   1.084       .  S
C1296      C1297   1.419       .  A
C1297      C1298   1.406       .  A
C1297      C1301   1.516       .  S
C1298      H1302   1.084       .  S
C1299      F1312   1.385       .  S
C1299      F1313   1.382       .  S
C1299      F1314   1.382       .  S
C1301      F1309   1.382       .  S
C1301      F1310   1.379       .  S
C1301      F1311   1.384       .  S
C1315      C1316   1.404       .  A
C1315      C1320   1.417       .  A
C1315      H1325   1.083       .  S
C1316      C1321   1.498       .  S
C1316      C1317   1.413       .  A
C1317      C1318   1.407       .  A
C1317      C1322   1.522       .  S
C1318      C1319   1.413       .  A
C1318      H1323   1.077       .  S
C1319      C1320   1.428       .  A
C1320      C1324   1.517       .  S
C1321      C1326   1.419       .  A
C1321      C1330   1.402       .  A
C1322      F1338   1.385       .  S
C1322      F1339   1.381       .  S
C1322      F1340   1.383       .  S
C1324      F1335   1.379       .  S
C1324      F1336   1.385       .  S
C1324      F1337   1.381       .  S
C1326      C1327   1.413       .  A
C1326      C1331   1.517       .  S
C1327      C1328   1.405       .  A
C1327      H1332   1.082       .  S
C1328      C1329   1.421       .  A
C1329      C1330   1.407       .  A
C1329      C1333   1.514       .  S
C1330      H1334   1.085       .  S
C1331      F1344   1.384       .  S
C1331      F1345   1.382       .  S
C1331      F1346   1.382       .  S
C1333      F1341   1.383       .  S
C1333      F1342   1.379       .  S
C1333      F1343   1.384       .  S
C1347      C1348   1.409       .  A
C1347      C1352   1.419       .  A
C1347      H1357   1.082       .  S
C1348      C1353   1.496       .  S
C1348      C1349   1.413       .  A
C1349      C1350   1.402       .  A
C1349      C1354   1.522       .  S
C1350      C1351   1.407       .  A
C1350      H1355   1.077       .  S
C1351      C1352   1.421       .  A
C1352      C1356   1.518       .  S
C1353      C1358   1.420       .  A
C1353      C1362   1.400       .  A
C1354      F1370   1.381       .  S
C1354      F1371   1.382       .  S
C1354      F1372   1.385       .  S
C1356      F1367   1.378       .  S
C1356      F1368   1.385       .  S
C1356      F1369   1.380       .  S
C1358      C1359   1.417       .  A
C1358      C1363   1.518       .  S
C1359      C1360   1.407       .  A
C1359      H1364   1.080       .  S
C1360      C1361   1.419       .  A
C1361      C1362   1.403       .  A
C1361      C1365   1.514       .  S
C1362      H1366   1.084       .  S
C1363      F1376   1.383       .  S
C1363      F1377   1.385       .  S
C1363      F1378   1.382       .  S
C1365      F1373   1.382       .  S
C1365      F1374   1.378       .  S
C1365      F1375   1.384       .  S
C1379      C1380   1.406       .  A
C1379      C1384   1.420       .  A
C1379      H1389   1.082       .  S
C1380      C1385   1.506       .  S
C1380      C1381   1.417       .  A
C1381      C1382   1.409       .  A
C1381      C1386   1.521       .  S
C1382      C1383   1.411       .  A
C1382      H1387   1.081       .  S
C1383      C1384   1.426       .  A
C1384      C1388   1.518       .  S
C1385      C1390   1.420       .  A
C1385      C1394   1.399       .  A
C1386      F1402   1.381       .  S
C1386      F1403   1.383       .  S
C1386      F1404   1.385       .  S
C1388      F1399   1.385       .  S
C1388      F1400   1.379       .  S
C1388      F1401   1.379       .  S
C1390      C1391   1.418       .  A
C1390      C1395   1.517       .  S
C1391      C1392   1.407       .  A
C1391      H1396   1.081       .  S
C1392      C1393   1.427       .  A
C1393      C1394   1.411       .  A
C1393      C1397   1.516       .  S
C1394      H1398   1.083       .  S
C1395      F1408   1.385       .  S
C1395      F1409   1.382       .  S
C1395      F1410   1.383       .  S
C1397      F1405   1.373       .  S
C1397      F3392   1.380       .  S
C1397      F3393   1.385       .  S
F1406      C3383   1.367       .  S
F1407      C3383   1.384       .  S
C1411      C1412   1.391       .  A
C1411      C1416   1.398       .  A
C1411      H1421   1.086       .  S
C1412      C1417   1.475       .  S
C1412      C1413   1.410       .  A
C1413      C1414   1.409       .  A
C1413      C1418   1.515       .  S
C1414      C1415   1.412       .  A
C1414      H1419   1.074       .  S
C1415      C1416   1.436       .  A
C1416      C1420   1.524       .  S
C1417      C1422   1.420       .  A
C1417      C1426   1.401       .  A
C1418      F1434   1.383       .  S
C1418      F1435   1.383       .  S
C1418      F1436   1.384       .  S
C1420      F1431   1.375       .  S
C1420      F1432   1.387       .  S
C1420      F1433   1.383       .  S
C1422      C1423   1.400       .  A
C1422      C1427   1.520       .  S
C1423      C1424   1.398       .  A
C1423      H1428   1.085       .  S
C1424      C1425   1.419       .  A
C1425      C1426   1.406       .  A
C1425      C1429   1.519       .  S
C1426      H1430   1.083       .  S
C1427      F1440   1.384   1_565  S
C1427      F1441   1.383       .  S
C1427      F1442   1.381       .  S
C1429      F1437   1.385       .  S
C1429      F1438   1.383       .  S
C1429      F1439   1.382       .  S
C1443      C1444   1.403       .  A
C1443      C1448   1.409       .  A
C1443      H1453   1.083       .  S
C1444      C1449   1.476       .  S
C1444      C1445   1.415       .  A
C1445      C1446   1.398       .  A
C1445      C1450   1.520       .  S
C1446      C1447   1.405       .  A
C1446      H1451   1.085       .  S
C1447      C1448   1.419       .  A
C1448      C1452   1.519       .  S
C1449      C1454   1.413       .  A
C1449      C1458   1.395       .  A
C1450      F1466   1.383       .  S
C1450      F1467   1.379       .  S
C1450      F1468   1.383       .  S
C1452      F1463   1.385       .  S
C1452      F1464   1.383   1_556  S
C1452      F1465   1.383       .  S
C1454      C1455   1.406       .  A
C1454      C1459   1.517       .  S
C1455      C1456   1.406       .  A
C1455      H1460   1.083       .  S
C1456      C1457   1.425       .  A
C1457      C1458   1.400       .  A
C1457      C1461   1.512       .  S
C1458      H1462   1.085       .  S
C1459      F1472   1.384       .  S
C1459      F1473   1.383       .  S
C1459      F1474   1.383       .  S
C1461      F1469   1.382       .  S
C1461      F1470   1.367       .  S
C1461      F1471   1.384       .  S
C1475      C1476   1.402       .  A
C1475      C1480   1.408       .  A
C1475      H1485   1.083       .  S
C1476      C1481   1.478       .  S
C1476      C1477   1.414       .  A
C1477      C1478   1.402       .  A
C1477      C1482   1.521       .  S
C1478      C1479   1.404       .  A
C1478      H1483   1.084       .  S
C1479      C1480   1.418       .  A
C1480      C1484   1.518       .  S
C1481      C1486   1.411       .  A
C1481      C1490   1.393       .  A
C1482      F1498   1.382       .  S
C1482      F1499   1.382       .  S
C1482      F1500   1.385   1_455  S
C1484      F1495   1.385       .  S
C1484      F1496   1.382   1_556  S
C1484      F1497   1.383       .  S
C1486      C1487   1.407       .  A
C1486      C1491   1.518       .  S
C1487      C1488   1.410       .  A
C1487      H1492   1.083       .  S
C1488      C1489   1.430       .  A
C1489      C1490   1.400       .  A
C1489      C1493   1.511       .  S
C1490      H1494   1.085       .  S
C1491      F1504   1.384       .  S
C1491      F1505   1.383       .  S
C1491      F1506   1.382       .  S
C1493      F1501   1.383       .  S
C1493      F1502   1.361       .  S
C1493      F1503   1.385       .  S
C1507      C1508   1.405       .  A
C1507      C1512   1.418       .  A
C1507      H1517   1.083       .  S
C1508      C1513   1.508       .  S
C1508      C1509   1.417       .  A
C1509      C1510   1.414       .  A
C1509      C1514   1.519       .  S
C1510      C1511   1.412       .  A
C1510      H1515   1.081   1_455  S
C1511      C1512   1.427       .  A
C1513      C1518   1.417       .  A
C1513      C1522   1.400       .  A
C1514      F1530   1.382   1_455  S
C1514      F1531   1.382       .  S
C1514      F3518   1.385   1_455  S
C1516      F1527   1.384       .  S
C1516      F1528   1.381       .  S
C1516      F1529   1.377       .  S
C1518      C1519   1.409       .  A
C1518      C1523   1.508       .  S
C1519      C1520   1.395       .  A
C1519      H1524   1.063       .  S
C1520      C1521   1.435       .  A
C1521      C1522   1.414       .  A
C1521      C1525   1.515       .  S
C1522      H1526   1.084       .  S
C1523      F1536   1.384       .  S
C1523      F1537   1.382       .  S
C1523      F1538   1.382       .  S
C1525      F1533   1.381       .  S
C1525      F1534   1.376       .  S
C1525      F1535   1.384       .  S
F1532      C3500   1.385       .  S
C1539      C1540   1.397       .  A
C1539      C1544   1.414       .  A
C1539      H1549   1.083       .  S
C1540      C1545   1.500       .  S
C1540      C1541   1.414       .  A
C1541      C1542   1.414       .  A
C1541      C1546   1.519       .  S
C1542      C1543   1.415       .  A
C1542      H1547   1.082       .  S
C1543      C1544   1.433       .  A
C1544      C1548   1.516       .  S
C1545      C1550   1.417       .  A
C1545      C1554   1.395       .  A
C1546      F1562   1.381       .  S
C1546      F1563   1.383       .  S
C1546      F1564   1.384       .  S
C1548      F1559   1.385       .  S
C1548      F1560   1.380       .  S
C1548      F1561   1.370       .  S
C1550      C1551   1.415       .  A
C1550      C1555   1.517       .  S
C1551      C1552   1.404       .  A
C1551      H3542   1.067       .  S
C1552      C1553   1.433       .  A
C1553      C1554   1.407       .  A
C1553      C1557   1.513       .  S
C1554      H1558   1.085       .  S
C1555      F3554   1.385       .  S
C1555      F1569   1.382       .  S
C1555      F1570   1.381       .  S
H1556      C3537   1.067       .  S
C1557      F1565   1.381       .  S
C1557      F1566   1.368       .  S
C1557      F1567   1.384       .  S
F1568      C3541   1.385       .  S
C1571      C1572   1.404       .  A
C1571      C1576   1.417       .  A
C1571      H1581   1.080       .  S
C1572      C1577   1.521       .  S
C1572      C1573   1.426       .  A
C1573      C1574   1.422       .  A
C1573      C1578   1.517       .  S
C1574      C1575   1.414       .  A
C1574      H1579   1.085       .  S
C1575      C1576   1.426       .  A
C1577      C1582   1.423       .  A
C1577      C1586   1.406       .  A
C1578      F1594   1.380       .  S
C1578      F1595   1.383       .  S
C1578      F1596   1.384       .  S
C1580      F1592   1.383       .  S
C1580      F1593   1.380       .  S
C1582      C1583   1.419       .  A
C1582      C1587   1.518       .  S
C1583      C1584   1.411       .  A
C1583      H1588   1.074       .  S
C1584      C1585   1.426       .  A
C1585      C1586   1.421       .  A
C1585      C1589   1.506       .  S
C1586      H1590   1.081       .  S
C1587      F1600   1.384       .  S
C1587      F1601   1.380       .  S
C1587      F1602   1.383       .  S
C1589      F1597   1.385       .  S
C1589      F1598   1.383       .  S
C1589      F1599   1.380       .  S
C1603      C1604   1.391       .  A
C1603      C1608   1.405       .  A
C1603      H1613   1.085       .  S
C1604      C1609   1.486       .  S
C1604      C1605   1.409       .  A
C1605      C1606   1.410       .  A
C1605      C1610   1.517       .  S
C1606      C1607   1.414       .  A
C1606      H1611   1.076       .  S
C1607      C1608   1.444       .  A
C1609      C1614   1.420       .  A
C1609      C1618   1.401       .  A
C1610      F1626   1.383       .  S
C1610      F1627   1.382       .  S
C1610      F1628   1.384       .  S
C1612      F1623   1.387       .  S
C1612      F1625   1.384       .  S
C1614      C1615   1.406       .  A
C1614      C1619   1.521       .  S
C1615      C1616   1.402       .  A
C1615      H1620   1.083       .  S
C1616      C1617   1.420       .  A
C1617      C1618   1.409       .  A
C1617      C1621   1.519       .  S
C1618      H1622   1.083       .  S
C1619      F1632   1.385       .  S
C1619      F1634   1.382   1_565  S
C1621      F1629   1.385       .  S
C1621      F1630   1.384       .  S
C1621      F1631   1.382       .  S
C1635      C1636   1.391       .  A
C1635      C1640   1.401       .  A
C1635      H1645   1.086       .  S
C1636      C1641   1.489       .  S
C1636      C1637   1.414       .  A
C1637      C1638   1.415       .  A
C1637      C1642   1.517       .  S
C1638      C1639   1.414       .  A
C1638      H3629   1.082       .  S
C1639      C1640   1.434       .  A
C1640      C1644   1.513       .  S
C1641      C1646   1.418       .  A
C1641      C1650   1.405       .  A
C1642      F3644   1.383       .  S
C1642      F1659   1.382       .  S
C1642      F3646   1.384       .  S
H1643      C3624   1.082       .  S
C1644      F1655   1.384       .  S
C1644      F1656   1.383       .  S
C1644      F1657   1.359       .  S
C1646      C1647   1.405       .  A
C1646      C1651   1.520       .  S
C1647      C1648   1.402       .  A
C1647      H1652   1.084       .  S
C1648      C1649   1.417       .  A
C1649      C1650   1.413       .  A
C1649      C1653   1.518       .  S
C1650      H1654   1.083       .  S
C1651      F1664   1.385       .  S
C1651      F1665   1.382       .  S
C1651      F1666   1.382       .  S
C1653      F1661   1.382       .  S
C1653      F1662   1.384       .  S
C1653      F1663   1.385       .  S
F1658      C3628   1.382       .  S
F1660      C3628   1.384       .  S
C1667      C1668   1.397       .  A
C1667      C1672   1.400       .  A
C1667      H1677   1.085       .  S
C1668      C1673   1.476       .  S
C1668      C1669   1.411       .  A
C1669      C1670   1.404       .  A
C1669      C1674   1.518   1_455  S
C1670      C1671   1.406       .  A
C1670      H3661   1.084   1_455  S
C1671      C1672   1.428       .  A
C1673      C1678   1.418       .  A
C1673      C1682   1.401       .  A
C1674      F1690   1.382       .  S
C1674      F1691   1.383       .  S
C1674      F3678   1.385       .  S
H1675      C3656   1.084       .  S
C1676      F1687   1.380       .  S
C1676      F1688   1.376       .  S
C1676      F1689   1.370       .  S
C1678      C1679   1.402       .  A
C1678      C1683   1.521       .  S
C1679      C1680   1.400       .  A
C1679      H1684   1.084       .  S
C1680      C1681   1.416       .  A
C1681      C1682   1.404       .  A
C1681      C1685   1.520       .  S
C1682      H1686   1.083       .  S
C1683      F1696   1.384       .  S
C1683      F1697   1.382       .  S
C1683      F1698   1.383       .  S
C1685      F1693   1.381       .  S
C1685      F1694   1.384       .  S
C1685      F1695   1.385       .  S
F1692      C3660   1.384       .  S
C1699      C1700   1.396       .  A
C1699      C1704   1.406       .  A
C1699      H1709   1.083       .  S
C1700      C1705   1.477       .  S
C1700      C1701   1.414       .  A
C1701      C1702   1.402       .  A
C1701      C1706   1.517       .  S
C1702      C1703   1.404       .  A
C1702      H1707   1.083       .  S
C1703      C1704   1.429       .  A
C1704      C1708   1.522       .  S
C1705      C1710   1.411       .  A
C1705      C1714   1.397       .  A
C1706      F1722   1.381       .  S
C1706      F1723   1.380       .  S
C1706      F1724   1.384       .  S
C1708      F1719   1.382       .  S
C1708      F1720   1.385       .  S
C1708      F1721   1.384       .  S
C1710      C1711   1.404       .  A
C1710      C1715   1.518       .  S
C1711      C1712   1.408       .  A
C1711      H1716   1.078       .  S
C1712      C1713   1.420       .  A
C1713      C1714   1.402       .  A
C1713      C1717   1.513       .  S
C1714      H1718   1.084       .  S
C1715      F1728   1.385       .  S
C1715      F1729   1.383       .  S
C1715      F1730   1.381       .  S
C1717      F1725   1.385       .  S
C1717      F1726   1.380       .  S
C1717      F1727   1.381       .  S
C1731      C1732   1.391       .  A
C1731      C1736   1.403       .  A
C1731      H1741   1.084       .  S
C1732      C1737   1.468       .  S
C1732      C1733   1.409       .  A
C1733      C1734   1.400       .  A
C1733      C1738   1.521       .  S
C1734      C1735   1.412       .  A
C1734      H1739   1.079       .  S
C1735      C1736   1.434       .  A
C1736      C1740   1.518       .  S
C1737      C1742   1.412       .  A
C1737      C3732   1.398   1_455  A
C1738      F1754   1.382   1_455  S
C1738      F1755   1.381       .  S
C1738      F1756   1.384       .  S
C1740      F1751   1.380       .  S
C1740      F1752   1.385       .  S
C1740      F1753   1.371       .  S
C1742      C3729   1.406   1_455  A
C1742      C1747   1.518       .  S
C1743      C3728   1.409       .  A
C1743      C1744   1.407       .  A
C1743      H1748   1.083       .  S
C1744      C1745   1.422       .  A
C1745      C1746   1.399       .  A
C1745      C1749   1.522       .  S
C1746      C3723   1.397       .  A
C1746      H1750   1.084       .  S
C1747      F1760   1.385       .  S
C1747      F1761   1.382       .  S
C1747      F1762   1.381       .  S
C1749      F1757   1.384       .  S
C1749      F1758   1.383       .  S
C1749      F1759   1.385       .  S
C1763      C1764   1.393       .  A
C1763      C1768   1.398       .  A
C1763      H1773   1.085       .  S
C1764      C1769   1.486   1_565  S
C1764      C1765   1.416       .  A
C1765      C1766   1.414       .  A
C1765      C1770   1.516       .  S
C1766      C1767   1.408       .  A
C1766      H1771   1.081       .  S
C1767      C1768   1.422       .  A
C1768      C1772   1.508       .  S
C1769      C1774   1.417       .  A
C1770      F1788   1.385       .  S
C1772      F1783   1.379       .  S
C1772      F1784   1.385       .  S
C1772      F1785   1.375       .  S
C1774      C1779   1.518   1_545  S
C1775      C1776   1.403       .  A
C1775      H1780   1.083       .  S
C1776      C1777   1.425       .  A
C1777      C1778   1.405       .  A
C1777      C1781   1.523       .  S
C1778      H1782   1.083       .  S
C1779      F1792   1.384       .  S
C1779      F1793   1.382       .  S
C1779      F1794   1.383       .  S
C1781      F1789   1.385       .  S
C1781      F1790   1.384       .  S
C1781      F1791   1.382       .  S
C1795      C1796   1.391       .  A
C1795      C1800   1.404       .  A
C1795      H1805   1.083       .  S
C1796      C1801   1.489       .  S
C1796      C1797   1.412       .  A
C1797      C1798   1.415       .  A
C1797      C1802   1.516       .  S
C1798      C1799   1.415       .  A
C1798      H1803   1.079       .  S
C1799      C1800   1.432       .  A
C1800      C1804   1.509       .  S
C1801      C1806   1.420       .  A
C1801      C1810   1.405       .  A
C1802      F1818   1.383       .  S
C1802      F1819   1.382       .  S
C1802      F1820   1.385       .  S
C1804      F1815   1.376       .  S
C1804      F1816   1.386       .  S
C1804      F1817   1.375       .  S
C1806      C1807   1.405       .  A
C1806      C1811   1.516       .  S
C1807      C1808   1.400       .  A
C1807      H1812   1.085       .  S
C1808      C1809   1.418       .  A
C1809      C1810   1.412       .  A
C1809      C1813   1.517       .  S
C1810      H1814   1.083       .  S
C1811      F1824   1.384       .  S
C1811      F1825   1.383       .  S
C1811      F1826   1.380       .  S
C1813      F1821   1.385       .  S
C1813      F1822   1.383       .  S
C1813      F1823   1.382       .  S
C1827      C1828   1.402       .  A
C1827      C1832   1.409       .  A
C1827      H1837   1.085       .  S
C1828      C1833   1.490       .  S
C1828      C1829   1.415       .  A
C1829      C1830   1.409       .  A
C1829      C1834   1.520       .  S
C1830      C1831   1.411       .  A
C1830      H1835   1.083       .  S
C1831      C1832   1.424       .  A
C1832      C1836   1.515       .  S
C1833      C3824   1.418       .  A
C1833      C1842   1.402       .  A
C1834      F1850   1.383       .  S
C1834      F3837   1.381       .  S
C1834      F1852   1.384       .  S
C1836      F1847   1.377       .  S
C1836      F1848   1.384       .  S
C1836      F1849   1.373       .  S
C1838      C3819   1.417   1_455  A
C1838      C1839   1.408       .  A
C1838      C1843   1.517       .  S
C1839      C1840   1.404       .  A
C1839      H1844   1.083       .  S
C1840      C1841   1.424       .  A
C1841      C3828   1.407   1_455  A
C1841      C1845   1.521       .  S
C1842      C3827   1.408       .  A
C1842      H1846   1.083       .  S
C1843      F1856   1.384       .  S
C1843      F1857   1.383       .  S
C1843      F1858   1.381   1_455  S
C1845      F3839   1.383       .  S
C1845      F1854   1.384       .  S
C1845      F1855   1.385   1_455  S
F1851      C3820   1.381       .  S
F1853      C3831   1.382       .  S
C1859      C1860   1.404       .  A
C1859      H1869   1.083       .  S
C1860      C1865   1.486       .  S
C1861      C1862   1.400       .  A
C1861      C1866   1.519       .  S
C1862      C1863   1.396       .  A
C1862      H1867   1.084       .  S
C1863      C1864   1.411       .  A
C1864      C1868   1.516       .  S
C1865      C1870   1.410       .  A
C1865      C1874   1.398       .  A
C1866      F1882   1.380       .  S
C1866      F1883   1.378       .  S
C1866      F1884   1.385       .  S
C1868      F1880   1.384   1_565  S
C1868      F1881   1.383       .  S
C1870      C1871   1.407       .  A
C1870      C1875   1.520       .  S
C1871      C1872   1.401       .  A
C1871      H1876   1.065       .  S
C1872      C1873   1.426       .  A
C1873      C1874   1.408       .  A
C1873      C1877   1.508       .  S
C1874      H1878   1.085       .  S
C1875      F1888   1.384       .  S
C1875      F1889   1.383       .  S
C1875      F1890   1.381       .  S
C1877      F1885   1.383       .  S
C1877      F1886   1.368       .  S
C1877      F1887   1.385       .  S
C1891      C1892   1.400       .  A
C1891      C1896   1.410       .  A
C1891      H1901   1.080       .  S
C1892      C1897   1.514       .  S
C1892      C1893   1.426       .  A
C1893      C1894   1.411       .  A
C1893      C1898   1.518       .  S
C1894      C1895   1.406       .  A
C1894      H1899   1.078       .  S
C1895      C1896   1.431       .  A
C1896      C1900   1.506       .  S
C1897      C1902   1.425       .  A
C1897      C1906   1.402       .  A
C1898      F1914   1.383       .  S
C1898      F1915   1.381       .  S
C1898      F1916   1.384       .  S
C1900      F1911   1.385       .  S
C1900      F1912   1.381       .  S
C1900      F1913   1.366       .  S
C1902      C1903   1.415       .  A
C1902      C1907   1.522       .  S
C1903      C1904   1.410       .  A
C1903      H1908   1.077       .  S
C1904      C1905   1.427       .  A
C1905      C1906   1.412       .  A
C1905      C1909   1.502       .  S
C1906      H1910   1.083       .  S
C1907      F1920   1.385       .  S
C1907      F1921   1.382       .  S
C1907      F1922   1.380       .  S
C1909      F1917   1.385       .  S
C1909      F1918   1.380       .  S
C1909      F1919   1.378       .  S
C1923      C1924   1.405       .  A
C1923      C1928   1.417       .  A
C1923      H1933   1.083       .  S
C1924      C1925   1.413       .  A
C1925      C1926   1.411       .  A
C1926      C1927   1.411       .  A
C1926      H1931   1.076       .  S
C1927      C1928   1.423       .  A
C1928      C1932   1.511       .  S
C1929      C1934   1.418       .  A
C1929      C1938   1.404       .  A
C1930      F1946   1.383       .  S
C1930      F1947   1.381       .  S
C1932      F1943   1.385       .  S
C1932      F1944   1.378       .  S
C1932      F1945   1.380       .  S
C1934      C1935   1.410       .  A
C1935      C1936   1.409       .  A
C1935      H1940   1.083       .  S
C1936      C1937   1.426       .  A
C1937      C1938   1.413       .  A
C1937      C1941   1.517       .  S
C1938      H1942   1.085       .  S
C1939      F1953   1.379   1_545  S
C1939      F1954   1.379   1_545  S
C1941      F1949   1.384       .  S
C1941      F1950   1.373       .  S
C1941      F1951   1.383       .  S
C1955      C1956   1.397       .  A
C1955      C1960   1.411       .  A
C1955      H1965   1.085       .  S
C1956      C3947   1.504       .  S
C1956      C1957   1.416       .  A
C1957      C1958   1.419       .  A
C1957      C1962   1.516       .  S
C1958      C1959   1.407       .  A
C1958      H1963   1.062       .  S
C1959      C1960   1.434       .  A
C1960      C1964   1.509       .  S
C1961      C3942   1.500   1_455  S
C1961      C1966   1.420       .  A
C1961      C1970   1.398       .  A
C1962      F1978   1.381       .  S
C1962      F1979   1.381       .  S
C1962      F1980   1.384       .  S
C1964      F1975   1.376       .  S
C1964      F1976   1.384       .  S
C1964      F1977   1.365       .  S
C1966      C1967   1.412       .  A
C1966      C1971   1.513       .  S
C1967      C1968   1.404       .  A
C1967      H1972   1.083       .  S
C1968      C1969   1.432       .  A
C1969      C1970   1.407       .  A
C1969      C1973   1.516       .  S
C1970      H1974   1.085       .  S
C1971      F1984   1.385       .  S
C1971      F1985   1.382       .  S
C1971      F1986   1.382   1_455  S
C1973      F1981   1.385       .  S
C1973      F1982   1.374       .  S
C1973      F1983   1.382       .  S
C1987      H1988   1.107       .  S
C1987      C1993   1.545       .  S
C1987      C1992   1.560       .  S
C1987      C1991   1.532       .  S
C1989      H1990   1.092       .  S
C1989      C1995   1.549       .  S
C1989      C1994   1.584       .  S
C1989      C1996   1.571       .  S
C1991      C1994   1.385       .  D
C1991      C2824   1.504       .  S
C1992      C1995   1.381       .  D
C1992      C2865   1.515       .  S
C1993      C1996   1.387       .  D
C1993      C2792   1.524       .  S
C1994      C2952   1.535       .  S
C1995      C2929   1.518       .  S
C1996      C2897   1.533       .  S
C1997      H1998   1.107       .  S
C1997      C2003   1.571       .  S
C1997      C2002   1.560       .  S
C1997      C2001   1.558       .  S
C1999      H2000   1.103       .  S
C1999      C2005   1.539       .  S
C1999      C2004   1.550       .  S
C1999      C2006   1.530       .  S
C2001      C2004   1.380       .  D
C2001      C2888   1.523       .  S
C2002      C2005   1.382       .  D
C2002      C2961   1.510       .  S
C2003      C2006   1.376       .  D
C2003      C2920   1.518       .  S
C2004      C2705   1.497       .  S
C2005      C2728   1.509       .  S
C2006      C2760   1.502       .  S
Zn2007     O2011   1.962       .  S
Zn2007     O2012   2.036       .  S
Zn2007     O2016   2.019       .  S
Zn2007     O2023   2.017       .  S
Zn2008     O2011   1.936       .  S
Zn2008     O2013   1.965       .  S
Zn2008     O2015   1.992       .  S
Zn2008     O2019   1.976       .  S
Zn2009     O2011   1.960       .  S
Zn2009     O2014   2.012       .  S
Zn2009     O2017   2.010       .  S
Zn2009     O2020   2.001       .  S
Zn2010     O2011   1.965       .  S
Zn2010     O2018   2.032       .  S
Zn2010     O2021   2.050       .  S
Zn2010     O2022   2.028       .  S
O2012      C2024   1.276       .  A
O2013      C2025   1.266       .  A
O2014      C2026   1.272       .  A
O2015      C2024   1.268       .  A
O2016      C2026   1.273       .  A
O2017      C2025   1.272       .  A
O2018      C2027   1.274       .  A
O2019      C2028   1.268       .  A
O2020      C2027   1.270       .  A
O2021      C2028   1.276       .  A
O2022      C2029   1.277       .  A
O2023      C2029   1.274       .  A
C2024      C2609   1.481       .  S
C2025      C2673   1.468       .  S
C2026      C2856   1.469       .  S
C2027      C2833   1.480       .  S
C2028      C2641   1.479       .  S
C2029      C2801   1.473       .  S
C2030      H2031   1.073       .  S
C2030      C2036   1.516   1_565  S
C2030      C3028   1.544       .  S
C2032      H2033   1.097       .  S
C2032      C3031   1.557   1_545  S
C2032      C2039   1.590       .  S
C2034      C2037   1.399       .  D
C2034      C2600   1.548       .  S
C2035      C3023   1.550       .  S
C2035      C2038   1.376       .  D
C2035      C2664   1.489       .  S
C2036      C2039   1.375       .  D
C2036      C2632   1.512       .  S
C2037      C2568   1.527       .  S
C2038      C3025   1.547       .  S
C2038      C2504   1.524       .  S
C2039      C2545   1.524       .  S
C2040      H2041   1.099       .  S
C2040      C2046   1.580       .  S
C2040      C2045   1.555       .  S
C2040      C2044   1.579       .  S
C2042      H2043   1.087       .  S
C2042      C2048   1.540       .  S
C2042      C2047   1.526       .  S
C2042      C2049   1.544       .  S
C2044      C2047   1.373       .  D
C2044      C2513   1.524       .  S
C2045      C2048   1.380       .  D
C2045      C2536   1.526       .  S
C2046      C2049   1.402       .  D
C2046      C2577   1.533       .  S
C2047      C2481   1.494       .  S
C2048      C2449   1.499       .  S
C2049      C2408   1.544       .  S
C2050      H2051   1.113       .  S
C2050      C2056   1.519       .  S
C2050      C2055   1.519       .  S
C2050      C2054   1.517       .  S
C2052      H2053   1.090       .  S
C2052      C2058   1.568       .  S
C2052      C2057   1.564       .  S
C2052      C2059   1.566       .  S
C2054      C2057   1.378       .  D
C2054      C2257   1.484       .  S
C2055      C2058   1.384       .  D
C2055      C2289   1.489       .  S
C2056      C2059   1.384       .  D
C2056      C2225   1.493       .  S
C2057      C2344   1.514       .  S
C2058      C2312   1.520       .  S
C2059      C2376   1.517       .  S
C2060      H2061   1.111       .  S
C2060      C2065   1.557   1_455  S
C2060      C3057   1.559   1_455  S
C2062      H2063   1.103       .  S
C2062      C2068   1.537   1_455  S
C2062      C3060   1.539   1_455  S
C2064      C3053   1.557   1_545  S
C2064      C2067   1.382       .  D
C2064      C2321   1.505       .  S
C2065      C2068   1.381       .  D
C2065      C2385   1.508       .  S
C2066      C2069   1.380       .  D
C2066      C2353   1.504       .  S
C2067      C3055   1.539   1_545  S
C2067      C2184   1.510       .  S
C2068      C2161   1.501       .  S
C2069      C2120   1.500       .  S
Zn2070     O2074   1.968       .  S
Zn2070     O2075   2.053       .  S
Zn2070     O2079   2.045       .  S
Zn2070     O2086   2.052       .  S
Zn2071     O2074   1.920       .  S
Zn2071     O2076   1.956       .  S
Zn2071     O2078   1.948       .  S
Zn2071     O2082   1.965       .  S
Zn2072     O2074   1.960       .  S
Zn2072     O2077   2.013       .  S
Zn2072     O2080   2.046       .  S
Zn2072     O2083   2.008       .  S
Zn2073     O2074   1.954       .  S
Zn2073     O2081   1.999       .  S
Zn2073     O2084   2.037       .  S
Zn2073     O2085   1.989       .  S
O2075      C2087   1.279       .  A
O2076      C2088   1.264       .  A
O2077      C2089   1.273       .  A
O2078      C2087   1.263       .  A
O2079      C2089   1.278       .  A
O2080      C2088   1.275       .  A
O2081      C2090   1.271       .  A
O2082      C2091   1.263       .  A
O2083      C2090   1.274       .  A
O2084      C2091   1.275       .  A
O2085      C2092   1.270       .  A
O2086      C2092   1.278       .  A
C2087      C2769   1.473       .  S
C2088      C2737   1.474       .  S
C2089      C2193   1.488       .  S
C2090      C2152   1.478       .  S
C2091      C2696   1.481       .  S
C2092      C2129   1.477       .  S
Zn2093     O2097   1.940   1_556  S
Zn2093     O2102   2.006   1_455  S
Zn2094     O2101   2.014       .  S
Zn2094     O2105   1.998       .  S
Zn2095     O2097   1.966   1_655  S
Zn2095     O2100   2.053   1_554  S
Zn2095     O3096   2.030       .  S
Zn2095     O2106   2.036       .  S
Zn2096     O3100   2.011       .  S
Zn2096     O2108   2.012       .  S
O2098      C2110   1.270       .  A
O2099      C2111   1.271       .  A
O2100      C2112   1.278       .  A
O2101      C2110   1.270   1_554  A
O2102      C2112   1.270       .  A
O2103     Zn3088   2.031   1_545  S
O2103      C2111   1.274       .  A
O2104      C2113   1.273       .  A
O2105      C2114   1.271       .  A
O2106      C2113   1.276       .  A
O2107     Zn3089   2.009   1_545  S
O2107      C2114   1.272       .  A
O2108      C2115   1.271   1_554  A
O2109      C2115   1.269       .  A
C2110      C2440   1.477       .  S
C2111      C2280   1.479       .  S
C2112      C2417   1.488       .  S
C2113      C2216   1.485       .  S
C2114      C2248   1.470       .  S
C2115      C2472   1.473       .  S
C2116      C2117   1.395       .  A
C2116      C2121   1.399       .  A
C2116      H2126   1.086       .  S
C2117      C2122   1.483       .  S
C2117      C2118   1.413       .  A
C2118      C2119   1.412       .  A
C2118      C2123   1.519       .  S
C2119      C2120   1.411       .  A
C2119      H2124   1.083       .  S
C2120      C2121   1.427       .  A
C2121      C3118   1.514       .  S
C2122      C2127   1.421       .  A
C2122      C2131   1.401       .  A
C2123      F2139   1.383       .  S
C2123      F2140   1.380       .  S
C2123      F2141   1.385       .  S
C2125      C3114   1.513       .  S
C2125      F2136   1.384       .  S
C2125      F2137   1.382       .  S
C2125      F2138   1.366       .  S
C2127      C2128   1.410       .  A
C2127      C2132   1.522       .  S
C2128      C2129   1.401       .  A
C2128      H2133   1.083       .  S
C2129      C2130   1.419       .  A
C2130      C2131   1.405       .  A
C2130      C2134   1.522       .  S
C2131      H2135   1.083       .  S
C2132      F2145   1.384       .  S
C2132      F2146   1.382       .  S
C2132      F2147   1.380       .  S
C2134      F2142   1.384       .  S
C2134      F2143   1.382       .  S
C2134      F2144   1.385       .  S
C2148      C2149   1.400       .  A
C2148      C2153   1.404       .  A
C2148      H2158   1.083       .  S
C2149      C2154   1.472       .  S
C2149      C2150   1.413       .  A
C2150      C2151   1.403       .  A
C2150      C2155   1.522       .  S
C2151      C2152   1.406       .  A
C2151      H2156   1.083       .  S
C2152      C2153   1.420       .  A
C2153      C2157   1.520       .  S
C2154      C2159   1.408       .  A
C2154      C2163   1.394       .  A
C2155      F2171   1.382       .  S
C2155      F2172   1.382       .  S
C2155      F2173   1.385       .  S
C2157      F2168   1.385       .  S
C2157      F2169   1.384       .  S
C2157      F2170   1.383       .  S
C2159      C2160   1.403       .  A
C2159      C2164   1.519       .  S
C2160      C2161   1.410       .  A
C2160      H2165   1.078       .  S
C2161      C2162   1.427       .  A
C2162      C2163   1.398       .  A
C2162      C2166   1.514   1_655  S
C2163      H2167   1.086       .  S
C2164      F2177   1.385       .  S
C2164      F2178   1.383       .  S
C2164      F2179   1.381       .  S
C2166      F2174   1.384       .  S
C2166      F2175   1.383       .  S
C2166      F2176   1.364       .  S
C2180      C2181   1.396       .  A
C2180      C2185   1.407       .  A
C2180      H2190   1.083       .  S
C2181      C2186   1.489       .  S
C2181      C2182   1.415       .  A
C2182      C2183   1.410       .  A
C2182      C2187   1.519       .  S
C2183      C2184   1.409       .  A
C2184      C2185   1.428       .  A
C2185      C2189   1.517   1_545  S
C2186      C2191   1.417       .  A
C2186      C2195   1.402       .  A
C2187      F2203   1.382       .  S
C2187      F2204   1.382       .  S
C2189      F2200   1.373       .  S
C2189      F3194   1.385       .  S
C2189      F2202   1.378       .  S
C2191      C2192   1.410       .  A
C2191      C2196   1.520       .  S
C2192      C2193   1.406       .  A
C2192      H2197   1.083       .  S
C2193      C2194   1.421       .  A
C2194      C2195   1.408       .  A
C2194      C2198   1.520       .  S
C2195      H2199   1.083       .  S
C2196      F2209   1.385       .  S
C2196      F2210   1.382       .  S
C2196      F2211   1.382       .  S
C2198      F2206   1.384       .  S
C2198      F2207   1.382       .  S
C2198      F2208   1.385       .  S
F2201      C3182   1.385       .  S
C2212      C2213   1.400       .  A
C2212      C2217   1.406       .  A
C2212      H2222   1.083       .  S
C2213      C2218   1.485       .  S
C2213      C2214   1.416       .  A
C2214      C2215   1.409       .  A
C2214      C2219   1.519       .  S
C2215      C2216   1.405       .  A
C2215      H2220   1.083       .  S
C2216      C2217   1.422       .  A
C2217      C2221   1.519       .  S
C2218      C2223   1.415       .  A
C2218      C2227   1.402       .  A
C2219      F2235   1.382       .  S
C2219      F2236   1.383       .  S
C2219      F2237   1.384       .  S
C2221      F2232   1.385   1_655  S
C2221      F2233   1.383       .  S
C2221      F2234   1.382   1_655  S
C2223      C2224   1.404       .  A
C2223      C2228   1.519       .  S
C2224      C2225   1.405       .  A
C2224      H2229   1.083       .  S
C2225      C2226   1.420       .  A
C2226      C2227   1.406       .  A
C2226      C2230   1.516       .  S
C2227      H2231   1.084       .  S
C2228      F2241   1.385       .  S
C2228      F2242   1.382       .  S
C2228      F2243   1.382       .  S
C2230      F2238   1.382       .  S
C2230      F2239   1.377       .  S
C2230      F2240   1.384       .  S
C2244      C2245   1.399       .  A
C2244      C2249   1.403       .  A
C2244      H2254   1.084       .  S
C2245      C2250   1.474       .  S
C2245      C2246   1.416       .  A
C2246      C2247   1.405       .  A
C2246      C2251   1.520       .  S
C2247      C2248   1.402       .  A
C2247      H2252   1.083       .  S
C2248      C2249   1.417       .  A
C2249      C2253   1.519       .  S
C2250      C2255   1.413       .  A
C2250      C2259   1.398       .  A
C2251      F2267   1.382       .  S
C2251      F2268   1.382       .  S
C2251      F2269   1.385       .  S
C2253      F2264   1.382       .  S
C2253      F2265   1.384       .  S
C2253      F2266   1.383       .  S
C2255      C2256   1.401       .  A
C2255      C2260   1.520       .  S
C2256      C2257   1.403       .  A
C2256      H2261   1.083       .  S
C2257      C2258   1.420       .  A
C2258      C2259   1.402       .  A
C2258      C2262   1.516       .  S
C2259      H2263   1.085       .  S
C2260      F2273   1.385       .  S
C2260      F2274   1.382       .  S
C2260      F2275   1.382       .  S
C2262      F2270   1.382       .  S
C2262      F2271   1.375       .  S
C2262      F2272   1.384       .  S
C2276      C2277   1.401       .  A
C2276      C2281   1.406       .  A
C2276      H2286   1.083       .  S
C2277      C2282   1.482       .  S
C2277      C2278   1.416       .  A
C2278      C2279   1.406       .  A
C2278      C2283   1.520       .  S
C2279      C2280   1.404       .  A
C2279      H2284   1.083       .  S
C2280      C2281   1.419       .  A
C2281      C3278   1.519   1_545  S
C2282      C2287   1.414       .  A
C2282      C2291   1.402       .  A
C2283      F2299   1.382       .  S
C2283      F2300   1.382       .  S
C2283      F2301   1.385       .  S
C2285      C3274   1.520       .  S
C2285      F2296   1.383       .  S
C2285      F2297   1.384       .  S
C2285      F2298   1.384       .  S
C2287      C2288   1.402       .  A
C2287      C2292   1.520       .  S
C2288      C2289   1.405       .  A
C2288      H2293   1.082       .  S
C2289      C2290   1.418       .  A
C2290      C2291   1.405       .  A
C2290      C2294   1.516       .  S
C2291      H2295   1.084       .  S
C2292      F2305   1.385       .  S
C2292      F2306   1.382       .  S
C2292      F2307   1.383       .  S
C2294      F2302   1.382       .  S
C2294      F2303   1.378       .  S
C2294      F2304   1.384       .  S
C2308      C2309   1.406       .  A
C2308      C2313   1.419       .  A
C2308      H2318   1.083       .  S
C2309      C2314   1.503       .  S
C2309      C2310   1.417       .  A
C2310      C2311   1.407       .  A
C2310      C2315   1.522       .  S
C2311      C2312   1.410       .  A
C2311      H2316   1.079       .  S
C2312      C2313   1.426       .  A
C2313      C2317   1.517       .  S
C2314      C2319   1.422       .  A
C2314      C2323   1.401       .  A
C2315      F2331   1.385       .  S
C2315      F2332   1.381       .  S
C2315      F2333   1.383       .  S
C2317      F2328   1.379       .  S
C2317      F2329   1.385       .  S
C2317      F2330   1.380       .  S
C2319      C2320   1.417       .  A
C2319      C2324   1.518       .  S
C2320      C2321   1.406       .  A
C2320      H2325   1.082   1_655  S
C2321      C2322   1.420       .  A
C2322      C2323   1.406       .  A
C2322      C2326   1.512   1_545  S
C2323      H2327   1.084       .  S
C2324      F2337   1.385   1_655  S
C2324      F2338   1.382       .  S
C2324      F2339   1.382       .  S
C2326      F2334   1.382       .  S
C2326      F2335   1.379       .  S
C2326      F2336   1.384       .  S
C2340      C2341   1.406       .  A
C2340      C2345   1.417       .  A
C2340      H2350   1.083       .  S
C2341      C2346   1.496       .  S
C2341      C2342   1.413       .  A
C2342      C2343   1.406       .  A
C2342      C2347   1.521       .  S
C2343      C2344   1.411       .  A
C2343      H2348   1.080       .  S
C2344      C2345   1.423       .  A
C2345      C2349   1.518       .  S
C2346      C2351   1.418       .  A
C2346      C2355   1.402       .  A
C2347      F2363   1.385       .  S
C2347      F2364   1.381       .  S
C2347      F2365   1.382       .  S
C2349      F2360   1.378       .  S
C2349      F2361   1.385       .  S
C2349      F2362   1.380       .  S
C2351      C2352   1.412       .  A
C2351      C2356   1.518       .  S
C2352      C2353   1.406       .  A
C2352      H2357   1.081   1_545  S
C2353      C2354   1.423       .  A
C2354      C2355   1.408       .  A
C2354      C2358   1.516       .  S
C2355      H2359   1.084       .  S
C2356      F2369   1.382       .  S
C2356      F2370   1.383       .  S
C2356      F2371   1.385   1_545  S
C2358      F2366   1.383       .  S
C2358      F2367   1.378       .  S
C2358      F2368   1.384       .  S
C2372      C2373   1.405       .  A
C2372      C2377   1.419       .  A
C2372      H2382   1.083       .  S
C2373      C2378   1.498       .  S
C2373      C2374   1.414       .  A
C2374      C2375   1.403       .  A
C2374      C2379   1.522       .  S
C2375      C2376   1.409       .  A
C2375      H2380   1.081       .  S
C2376      C2377   1.427       .  A
C2377      C2381   1.518       .  S
C2378      C2383   1.419       .  A
C2378      C2387   1.398       .  A
C2379      F2395   1.380       .  S
C2379      F2396   1.383       .  S
C2379      F2397   1.385       .  S
C2381      F2392   1.385       .  S
C2381      F2393   1.379       .  S
C2381      F2394   1.378       .  S
C2383      C2384   1.416       .  A
C2383      C2388   1.517       .  S
C2384      C2385   1.407       .  A
C2384      H2389   1.081       .  S
C2385      C2386   1.422       .  A
C2386      C2387   1.406       .  A
C2386      C2390   1.515   1_655  S
C2387      H2391   1.083       .  S
C2388      F2401   1.385       .  S
C2388      F2402   1.382       .  S
C2388      F2403   1.382       .  S
C2390      F2398   1.373       .  S
C2404      C2405   1.394       .  A
C2404      C2409   1.403       .  A
C2404      H2414   1.085       .  S
C2405      C2410   1.490       .  S
C2405      C2406   1.414       .  A
C2406      C2407   1.415       .  A
C2406      C2411   1.516       .  S
C2407      C2408   1.415       .  A
C2407      H2412   1.075       .  S
C2408      C2409   1.438       .  A
C2409      C2413   1.525       .  S
C2410      C2415   1.422       .  A
C2410      C2419   1.402       .  A
C2411      F2427   1.382       .  S
C2411      F2428   1.383       .  S
C2411      F2429   1.384       .  S
C2413      F2424   1.375       .  S
C2413      F2425   1.386       .  S
C2413      F2426   1.382       .  S
C2415      C2416   1.406       .  A
C2415      C2420   1.520       .  S
C2416      C2417   1.402       .  A
C2416      H2421   1.085       .  S
C2417      C2418   1.423       .  A
C2418      C2419   1.412       .  A
C2418      C2422   1.520       .  S
C2419      H2423   1.083       .  S
C2420      F2433   1.384       .  S
C2420      F2434   1.383       .  S
C2420      F2435   1.382       .  S
C2422      F2430   1.385       .  S
C2422      F2431   1.383       .  S
C2422      F2432   1.382       .  S
C2436      C2437   1.402       .  A
C2436      C2441   1.407       .  A
C2436      H2446   1.083       .  S
C2437      C2442   1.477       .  S
C2437      C2438   1.412       .  A
C2438      C2439   1.399       .  A
C2438      C2443   1.519       .  S
C2439      C2440   1.404       .  A
C2439      H2444   1.083       .  S
C2440      C2441   1.420       .  A
C2441      C2445   1.519       .  S
C2442      C2447   1.414       .  A
C2442      C2451   1.393       .  A
C2443      F2459   1.382       .  S
C2443      F2460   1.380       .  S
C2443      F2461   1.384       .  S
C2445      F2456   1.385       .  S
C2445      F2457   1.383   1_556  S
C2445      F2458   1.383       .  S
C2447      C2448   1.408       .  A
C2447      C2452   1.518       .  S
C2448      C2449   1.408       .  A
C2448      H2453   1.083       .  S
C2449      C2450   1.423       .  A
C2450      C2451   1.397       .  A
C2450      C2454   1.511       .  S
C2451      H2455   1.085       .  S
C2452      F2465   1.384       .  S
C2452      F2466   1.382       .  S
C2452      F2467   1.383       .  S
C2454      F2462   1.381       .  S
C2454      F2463   1.367       .  S
C2454      F2464   1.384       .  S
C2468      C2469   1.400       .  A
C2468      C2473   1.405       .  A
C2468      H2478   1.083       .  S
C2469      C2474   1.469       .  S
C2469      C2470   1.412       .  A
C2470      C2471   1.399       .  A
C2470      C2475   1.522       .  S
C2471      C2472   1.405       .  A
C2471      H2476   1.083       .  S
C2472      C2473   1.418       .  A
C2473      C2477   1.518       .  S
C2474      C2479   1.409       .  A
C2474      C2483   1.391       .  A
C2475      F2491   1.382       .  S
C2475      F2492   1.382       .  S
C2475      F2493   1.384       .  S
C2477      F2488   1.384       .  S
C2477      F2489   1.383   1_556  S
C2477      F2490   1.383       .  S
C2479      C2480   1.403       .  A
C2479      C2484   1.518       .  S
C2480      C2481   1.409       .  A
C2480      H2485   1.083       .  S
C2481      C2482   1.428       .  A
C2482      C2483   1.397       .  A
C2482      C2486   1.511       .  S
C2483      H2487   1.085       .  S
C2484      F2497   1.384       .  S
C2484      F2498   1.383       .  S
C2484      F2499   1.382       .  S
C2486      F2494   1.383       .  S
C2486      F2495   1.361       .  S
C2486      F2496   1.384       .  S
C2500      C2501   1.404       .  A
C2500      C2505   1.418       .  A
C2500      H2510   1.083       .  S
C2501      C2506   1.504       .  S
C2501      C2502   1.416       .  A
C2502      C2503   1.412       .  A
C2502      C2507   1.520       .  S
C2503      C2504   1.410       .  A
C2503      H2508   1.081       .  S
C2504      C2505   1.429       .  A
C2505      C3502   1.519       .  S
C2506      C2511   1.417       .  A
C2506      C2515   1.400       .  A
C2507      F2523   1.381       .  S
C2507      F2524   1.382       .  S
C2509      C3498   1.516       .  S
C2509      F2520   1.385   1_565  S
C2509      F2521   1.382       .  S
C2509      F2522   1.379   1_565  S
C2511      C2512   1.406       .  A
C2511      C2516   1.511       .  S
C2512      C2513   1.394       .  A
C2512      H2517   1.069       .  S
C2513      C2514   1.435       .  A
C2514      C2515   1.413       .  A
C2514      C2518   1.514       .  S
C2515      H2519   1.085       .  S
C2516      F2529   1.384       .  S
C2516      F2530   1.382       .  S
C2516      F2531   1.379       .  S
C2518      F2526   1.381       .  S
C2518      F2527   1.374       .  S
C2518      F2528   1.384       .  S
C2532      C2533   1.399       .  A
C2532      C2537   1.416       .  A
C2532      H2542   1.083       .  S
C2533      C2538   1.501       .  S
C2533      C2534   1.415       .  A
C2534      C2535   1.410       .  A
C2534      C2539   1.519       .  S
C2535      C2536   1.411       .  A
C2535      H2540   1.083       .  S
C2536      C2537   1.433       .  A
C2537      C2541   1.517       .  S
C2538      C2543   1.418       .  A
C2538      C2547   1.393       .  A
C2539      F2555   1.381       .  S
C2539      F2556   1.382       .  S
C2539      F2557   1.385       .  S
C2541      F2552   1.385       .  S
C2541      F2553   1.379       .  S
C2541      F2554   1.370       .  S
C2543      C2544   1.414       .  A
C2543      C2548   1.514       .  S
C2544      C2545   1.402       .  A
C2545      C2546   1.435       .  A
C2546      C2547   1.405       .  A
C2546      C2550   1.510       .  S
C2547      H2551   1.084       .  S
C2548      F2562   1.382       .  S
C2548      F2563   1.380       .  S
C2550      F2558   1.382       .  S
C2550      F2559   1.366       .  S
C2550      F2560   1.384       .  S
C2564      C2565   1.400       .  A
C2564      C2569   1.412       .  A
C2564      H2574   1.081       .  S
C2565      C2570   1.502       .  S
C2565      C2566   1.420       .  A
C2566      C2567   1.415       .  A
C2566      C2571   1.518       .  S
C2567      C2568   1.414       .  A
C2567      H2572   1.085       .  S
C2568      C2569   1.426       .  A
C2569      C3566   1.510       .  S
C2570      C2575   1.418       .  A
C2570      C2579   1.400       .  A
C2571      F2587   1.381       .  S
C2571      F2588   1.383       .  S
C2571      F2589   1.383       .  S
C2573      C3562   1.511   1_545  S
C2573      F3577   1.385       .  S
C2573      F2585   1.383       .  S
C2573      F2586   1.380       .  S
C2575      C2576   1.413       .  A
C2575      C2580   1.517       .  S
C2576      C2577   1.410       .  A
C2576      H2581   1.072       .  S
C2577      C2578   1.426       .  A
C2578      C2579   1.413       .  A
C2578      C2582   1.503       .  S
C2579      H2583   1.080       .  S
C2580      F2593   1.384       .  S
C2580      F2594   1.381       .  S
C2580      F2595   1.383       .  S
C2582      F2590   1.385       .  S
C2582      F2591   1.382       .  S
C2582      F2592   1.380       .  S
F2584      C3566   1.385       .  S
C2596      C2597   1.388       .  A
C2596      C2601   1.406       .  A
C2596      H2606   1.084       .  S
C2597      C2602   1.485       .  S
C2597      C2598   1.406       .  A
C2598      C2599   1.412       .  A
C2598      C2603   1.518       .  S
C2599      C2600   1.421       .  A
C2599      H2604   1.077       .  S
C2600      C2601   1.448       .  A
C2601      C3598   1.525       .  S
C2602      C2607   1.419       .  A
C2602      C2611   1.401       .  A
C2603      F2619   1.382       .  S
C2603      F2620   1.381       .  S
C2603      F2621   1.384       .  S
C2605      C3594   1.525       .  S
C2605      F2616   1.387       .  S
C2605      F3610   1.382       .  S
C2605      F2618   1.382   1_565  S
C2607      C2608   1.406       .  A
C2607      C2612   1.522       .  S
C2608      C2609   1.402       .  A
C2608      H2613   1.083       .  S
C2609      C2610   1.421       .  A
C2610      C2611   1.407       .  A
C2610      C2614   1.521       .  S
C2611      H2615   1.082       .  S
C2612      F2625   1.385       .  S
C2612      F3619   1.381       .  S
C2612      F2627   1.381       .  S
C2614      F2622   1.385       .  S
C2614      F2623   1.384       .  S
C2614      F2624   1.383       .  S
F2617      C3598   1.374       .  S
F2626      C3605   1.383       .  S
C2628      C2629   1.390       .  A
C2628      C2633   1.399       .  A
C2628      H2638   1.086       .  S
C2629      C2634   1.480       .  S
C2629      C2630   1.411       .  A
C2630      C2631   1.410       .  A
C2630      C2635   1.515       .  S
C2631      C2632   1.412       .  A
C2632      C2633   1.433       .  A
C2633      C2637   1.510       .  S
C2634      C2639   1.418       .  A
C2634      C2643   1.404       .  A
C2635      F2652   1.383       .  S
C2637      F2648   1.385       .  S
C2637      F2649   1.383       .  S
C2637      F2650   1.356       .  S
C2639      C2640   1.403       .  A
C2639      C2644   1.521       .  S
C2640      C2641   1.404       .  A
C2640      H2645   1.085       .  S
C2641      C2642   1.417       .  A
C2642      C2643   1.409       .  A
C2642      C2646   1.518       .  S
C2643      H2647   1.083       .  S
C2644      F2657   1.383       .  S
C2644      F2658   1.383       .  S
C2644      F2659   1.381       .  S
C2646      F2654   1.383       .  S
C2646      F2655   1.384       .  S
C2646      F2656   1.385       .  S
C2660      C2661   1.397       .  A
C2660      C2665   1.398       .  A
C2660      H2670   1.085       .  S
C2661      C2666   1.468       .  S
C2661      C2662   1.408       .  A
C2662      C2663   1.401       .  A
C2662      C2667   1.518       .  S
C2663      C2664   1.405       .  A
C2664      C2665   1.428       .  A
C2665      C3662   1.521       .  S
C2666      C2671   1.417       .  A
C2666      C2675   1.398       .  A
C2667      F2683   1.382       .  S
C2667      F2684   1.383       .  S
C2669      C3658   1.521       .  S
C2669      F2680   1.381   1_565  S
C2669      F2681   1.373       .  S
C2669      F2682   1.371       .  S
C2671      C2672   1.399       .  A
C2671      C2676   1.519       .  S
C2672      C2673   1.401       .  A
C2672      H2677   1.085       .  S
C2673      C2674   1.419       .  A
C2674      C2675   1.400       .  A
C2674      C2678   1.520       .  S
C2675      H2679   1.084       .  S
C2676      F2689   1.383       .  S
C2676      F2690   1.383       .  S
C2676      F2691   1.381       .  S
C2678      F2686   1.383       .  S
C2678      F2687   1.384       .  S
C2678      F2688   1.385       .  S
C2692      C2693   1.397       .  A
C2692      C2697   1.404       .  A
C2692      H2702   1.084       .  S
C2693      C2698   1.478       .  S
C2693      C2694   1.416       .  A
C2694      C2695   1.405       .  A
C2694      C2699   1.518       .  S
C2695      C2696   1.403       .  A
C2695      H2700   1.083       .  S
C2696      C2697   1.425       .  A
C2697      C2701   1.522       .  S
C2698      C2703   1.413       .  A
C2698      C2707   1.397       .  A
C2699      F2715   1.382       .  S
C2699      F2716   1.380       .  S
C2699      F2717   1.385       .  S
C2701      F2712   1.382       .  S
C2701      F2713   1.385       .  S
C2701      F2714   1.384       .  S
C2703      C2704   1.407       .  A
C2703      C2708   1.518       .  S
C2704      C2705   1.408       .  A
C2704      H2709   1.079       .  S
C2705      C2706   1.418       .  A
C2706      C2707   1.400       .  A
C2706      C2710   1.511       .  S
C2707      H2711   1.084       .  S
C2708      F2721   1.385       .  S
C2708      F2722   1.383       .  S
C2708      F2723   1.381       .  S
C2710      F2718   1.385       .  S
C2710      F2719   1.381       .  S
C2710      F2720   1.380       .  S
C2724      C2725   1.393       .  A
C2724      C2729   1.402       .  A
C2724      H2734   1.085       .  S
C2725      C2730   1.470       .  S
C2725      C2726   1.410       .  A
C2726      C2727   1.400       .  A
C2726      C2731   1.521       .  S
C2727      C2728   1.412       .  A
C2727      H2732   1.080       .  S
C2728      C2729   1.430       .  A
C2729      C2733   1.514       .  S
C2730      C2735   1.414       .  A
C2731      F2747   1.381       .  S
C2731      F2748   1.380       .  S
C2731      F2749   1.385       .  S
C2733      F2744   1.382       .  S
C2733      F2745   1.385       .  S
C2733      F2746   1.369       .  S
C2735      C2740   1.518       .  S
C2736      C2737   1.405       .  A
C2736      H2741   1.083       .  S
C2737      C2738   1.420       .  A
C2738      C2739   1.398       .  A
C2738      C2742   1.522       .  S
C2739      H2743   1.084       .  S
C2740      F2753   1.384       .  S
C2740      F2754   1.382       .  S
C2740      F2755   1.381       .  S
C2742      F2750   1.384       .  S
C2742      F2751   1.382       .  S
C2742      F2752   1.385       .  S
C2756      C2757   1.393       .  A
C2756      C2761   1.397       .  A
C2756      H2766   1.085       .  S
C2757      C2762   1.479       .  S
C2757      C2758   1.417       .  A
C2758      C2759   1.410       .  A
C2758      C2763   1.516       .  S
C2759      C2760   1.406       .  A
C2759      H2764   1.083       .  S
C2760      C2761   1.422       .  A
C2761      C2765   1.508       .  S
C2762      C2767   1.415       .  A
C2762      C3764   1.397       .  A
C2763      F3772   1.382       .  S
C2763      F3773   1.382       .  S
C2763      F2781   1.383       .  S
C2765      F2776   1.379       .  S
C2765      F2777   1.385       .  S
C2765      F2778   1.374       .  S
C2767      C3761   1.411       .  A
C2767      C2772   1.518       .  S
C2768      C3760   1.404       .  A
C2768      C2769   1.401       .  A
C2768      H2773   1.083       .  S
C2769      C2770   1.423       .  A
C2770      C2771   1.402       .  A
C2770      C2774   1.523       .  S
C2771      C3755   1.398       .  A
C2771      H2775   1.083       .  S
C2772      F2785   1.384       .  S
C2772      F2786   1.383       .  S
C2772      F2787   1.383       .  S
C2774      F2782   1.385       .  S
C2774      F2783   1.384       .  S
C2774      F2784   1.383       .  S
F2779      C3756   1.382       .  S
F2780      C3756   1.382       .  S
C2788      C2789   1.390       .  A
C2788      C2793   1.403       .  A
C2788      H2798   1.083       .  S
C2789      C2794   1.484       .  S
C2789      C2790   1.410       .  A
C2790      C2791   1.413       .  A
C2790      C2795   1.516       .  S
C2791      C2792   1.414       .  A
C2791      H2796   1.077       .  S
C2792      C2793   1.430       .  A
C2793      C2797   1.506       .  S
C2794      C2799   1.420       .  A
C2794      C2803   1.408       .  A
C2795      F2811   1.383       .  S
C2795      F2812   1.382       .  S
C2795      F2813   1.384       .  S
C2797      F2808   1.376       .  S
C2797      F2809   1.386       .  S
C2797      F2810   1.377       .  S
C2799      C2800   1.403       .  A
C2799      C2804   1.519       .  S
C2800      C2801   1.399       .  A
C2800      H2805   1.085       .  S
C2801      C2802   1.412       .  A
C2802      C2803   1.409       .  A
C2802      C2806   1.517       .  S
C2803      H2807   1.083       .  S
C2804      F2817   1.383       .  S
C2804      F2818   1.383       .  S
C2804      F2819   1.379       .  S
C2806      F2814   1.384       .  S
C2806      F2815   1.384       .  S
C2806      F2816   1.383       .  S
C2820      C2821   1.399       .  A
C2820      C2825   1.405       .  A
C2820      H2830   1.085       .  S
C2821      C2826   1.484       .  S
C2821      C2822   1.414       .  A
C2822      C2823   1.409       .  A
C2822      C2827   1.519       .  S
C2823      C2824   1.410       .  A
C2823      H2828   1.083       .  S
C2824      C2825   1.424       .  A
C2825      C2829   1.514       .  S
C2826      C2835   1.402       .  A
C2827      F2843   1.382       .  S
C2827      F2845   1.384       .  S
C2829      F2840   1.378       .  S
C2829      F2841   1.384       .  S
C2829      F2842   1.370       .  S
C2831      C2832   1.409       .  A
C2831      C2836   1.518       .  S
C2832      C2833   1.403       .  A
C2832      H2837   1.083       .  S
C2833      C2834   1.419       .  A
C2834      C2838   1.520       .  S
C2835      H2839   1.083       .  S
C2836      F2849   1.385       .  S
C2836      F2850   1.382       .  S
C2836      F2851   1.380       .  S
C2838      F2847   1.384       .  S
C2838      F2848   1.385       .  S
C2852      C2853   1.404       .  A
C2852      C3850   1.409   1_545  A
C2852      H2862   1.083       .  S
C2853      C2858   1.481       .  S
C2853      C3847   1.416   1_545  A
C2854      C3846   1.416       .  A
C2854      C2855   1.404       .  A
C2854      C2859   1.521       .  S
C2855      C2856   1.401       .  A
C2855      H2860   1.084       .  S
C2856      C2857   1.418       .  A
C2857      C3845   1.407       .  A
C2857      C2861   1.519       .  S
C2858      C2863   1.408       .  A
C2858      C2867   1.396       .  A
C2859      F2875   1.382       .  S
C2859      F2876   1.380       .  S
C2859      F2877   1.384       .  S
C2861      F3865   1.383       .  S
C2861      F2873   1.383       .  S
C2861      F2874   1.382       .  S
C2863      C2864   1.405       .  A
C2863      C2868   1.521       .  S
C2864      C2865   1.400       .  A
C2864      H2869   1.062       .  S
C2865      C2866   1.429       .  A
C2866      C2867   1.407       .  A
C2866      C2870   1.510       .  S
C2867      H2871   1.085       .  S
C2868      F2881   1.383       .  S
C2868      F2882   1.383       .  S
C2868      F2883   1.380       .  S
C2870      F2878   1.383       .  S
C2870      F2879   1.365       .  S
C2870      F2880   1.384       .  S
F2872      C3854   1.383       .  S
C2884      C2885   1.397       .  A
C2884      C2889   1.406       .  A
C2884      H2894   1.084       .  S
C2885      C2890   1.504       .  S
C2885      C2886   1.422       .  A
C2886      C2887   1.411       .  A
C2886      C2891   1.518       .  S
C2887      C2888   1.408       .  A
C2887      H2892   1.077       .  S
C2888      C2889   1.430       .  A
C2889      C2893   1.504       .  S
C2890      C2895   1.422       .  A
C2890      C2899   1.401       .  A
C2891      F2907   1.382       .  S
C2891      F2908   1.383       .  S
C2891      F2909   1.384       .  S
C2893      F2904   1.385       .  S
C2893      F2905   1.380       .  S
C2893      F2906   1.364       .  S
C2895      C2896   1.409       .  A
C2895      C2900   1.522       .  S
C2896      C2897   1.409       .  A
C2896      H2901   1.075       .  S
C2897      C2898   1.428       .  A
C2898      C2899   1.410       .  A
C2898      C2902   1.503       .  S
C2899      H2903   1.082       .  S
C2900      F2913   1.384       .  S
C2900      F2914   1.383       .  S
C2900      F2915   1.380       .  S
C2902      F2910   1.385       .  S
C2902      F2911   1.380       .  S
C2902      F2912   1.377       .  S
C2916      C2917   1.403       .  A
C2916      C2921   1.413       .  A
C2916      H2926   1.083       .  S
C2917      C3915   1.495       .  S
C2917      C2918   1.418       .  A
C2918      C2919   1.410       .  A
C2918      C3916   1.520       .  S
C2919      C2920   1.411       .  A
C2919      H2924   1.078       .  S
C2920      C2921   1.421       .  A
C2921      C2925   1.510       .  S
C2922      C3910   1.501   1_545  S
C2922      C2927   1.419       .  A
C2922      C2931   1.406       .  A
C2923      C3911   1.518   1_545  S
C2923      F2939   1.383       .  S
C2923      F2940   1.381       .  S
C2923      F3934   1.384   1_545  S
C2925      F2936   1.385       .  S
C2925      F2937   1.377       .  S
C2925      F2938   1.379       .  S
C2927      C2928   1.407       .  A
C2927      C3925   1.517       .  S
C2928      C2929   1.406       .  A
C2928      H2933   1.084       .  S
C2929      C2930   1.427       .  A
C2930      C2931   1.418       .  A
C2930      C2934   1.521       .  S
C2931      H2935   1.082       .  S
C2932      C3920   1.519       .  S
C2932      F3938   1.385       .  S
C2932      F2946   1.382       .  S
C2932      F2947   1.381       .  S
C2934      F2942   1.384       .  S
C2934      F2943   1.378       .  S
C2934      F2944   1.382       .  S
F2941      C3916   1.384       .  S
F2945      C3925   1.380       .  S
C2948      C2949   1.397       .  A
C2948      C2953   1.411       .  A
C2948      H2958   1.085       .  S
C2949      C2950   1.413       .  A
C2950      C2951   1.412       .  A
C2950      C2955   1.513       .  S
C2951      C2952   1.403       .  A
C2951      H2956   1.061       .  S
C2952      C2953   1.434       .  A
C2953      C2957   1.510       .  S
C2954      C2959   1.416       .  A
C2954      C2963   1.398       .  A
C2955      F2971   1.381       .  S
C2955      F2972   1.381       .  S
C2955      F2973   1.384       .  S
C2957      F2968   1.375       .  S
C2957      F2969   1.384       .  S
C2957      F2970   1.366       .  S
C2959      C2960   1.410       .  A
C2959      C2964   1.513       .  S
C2960      C2961   1.405       .  A
C2960      H2965   1.083       .  S
C2961      C2962   1.432       .  A
C2962      C2963   1.406       .  A
C2962      C2966   1.519       .  S
C2963      H2967   1.085       .  S
C2964      F2977   1.384       .  S
C2964      F2978   1.382       .  S
C2964      F2979   1.382       .  S
C2966      F2974   1.385       .  S
C2966      F2975   1.375       .  S
C2966      F2976   1.382       .  S
C2980      H2981   1.106       .  S
C2980      C2986   1.540       .  S
C2980      C2985   1.552       .  S
C2980      C2984   1.537       .  S
C2982      H2983   1.098       .  S
C2982      C2988   1.553       .  S
C2982      C2987   1.583       .  S
C2982      C2989   1.575       .  S
C2984      C2987   1.390       .  D
C2984      C3817   1.506       .  S
C2985      C2988   1.381       .  D
C2985      C3858   1.519       .  S
C2986      C2989   1.389       .  D
C2986      C3785   1.521       .  S
C2987      C3945   1.544       .  S
C2988      C3922   1.509       .  S
C2989      C3890   1.533       .  S
C2990      H2991   1.107       .  S
C2990      C2996   1.567       .  S
C2990      C2995   1.562       .  S
C2990      C2994   1.560       .  S
C2992      H2993   1.104       .  S
C2992      C2998   1.548       .  S
C2992      C2997   1.551       .  S
C2992      C2999   1.536       .  S
C2994      C2997   1.384       .  D
C2994      C3881   1.515       .  S
C2995      C2998   1.384       .  D
C2995      C3954   1.517       .  S
C2996      C2999   1.377       .  D
C2996      C3913   1.522       .  S
C2997      C3698   1.515       .  S
C2998      C3721   1.512       .  S
C2999      C3753   1.505       .  S
Zn3000     O3004   1.962       .  S
Zn3000     O3005   2.015       .  S
Zn3000     O3009   2.013       .  S
Zn3000     O3016   2.011       .  S
Zn3001     O3004   1.939       .  S
Zn3001     O3006   1.979       .  S
Zn3001     O3008   1.993       .  S
Zn3001     O3012   1.974       .  S
Zn3002     O3004   1.956       .  S
Zn3002     O3007   2.008       .  S
Zn3002     O3010   2.008       .  S
Zn3002     O3013   2.003       .  S
Zn3003     O3004   1.963       .  S
Zn3003     O3011   2.036       .  S
Zn3003     O3014   2.051       .  S
Zn3003     O3015   2.039       .  S
O3005      C3017   1.273       .  A
O3006      C3018   1.268       .  A
O3007      C3019   1.273       .  A
O3008      C3017   1.268       .  A
O3009      C3019   1.271       .  A
O3010      C3018   1.272       .  A
O3011      C3020   1.275       .  A
O3012      C3021   1.267       .  A
O3013      C3020   1.270       .  A
O3014      C3021   1.277       .  A
O3015      C3022   1.278       .  A
O3016      C3022   1.272       .  A
C3017      C3602   1.468       .  S
C3018      C3666   1.472       .  S
C3019      C3849   1.472       .  S
C3020      C3826   1.483       .  S
C3021      C3634   1.475       .  S
C3022      C3794   1.476       .  S
C3023      H3024   1.069       .  S
C3023      C3029   1.517       .  S
C3025      H3026   1.099       .  S
C3025      C3032   1.581       .  S
C3027      C3030   1.399       .  D
C3027      C3593   1.540       .  S
C3028      C3031   1.377       .  D
C3028      C3657   1.493       .  S
C3029      C3032   1.378       .  D
C3029      C3625   1.513       .  S
C3030      C3561   1.528       .  S
C3031      C3497   1.530       .  S
C3032      C3538   1.517       .  S
C3033      H3034   1.098       .  S
C3033      C3039   1.578       .  S
C3033      C3038   1.547       .  S
C3033      C3037   1.579       .  S
C3035      H3036   1.088       .  S
C3035      C3041   1.545       .  S
C3035      C3040   1.526       .  S
C3035      C3042   1.543       .  S
C3037      C3040   1.373       .  D
C3037      C3506   1.522       .  S
C3038      C3041   1.378       .  D
C3038      C3529   1.520       .  S
C3039      C3042   1.399       .  D
C3039      C3570   1.540       .  S
C3040      C3474   1.498       .  S
C3041      C3442   1.498       .  S
C3042      C3401   1.536       .  S
C3043      H3044   1.113       .  S
C3043      C3049   1.521       .  S
C3043      C3048   1.518       .  S
C3043      C3047   1.517       .  S
C3045      H3046   1.094       .  S
C3045      C3051   1.573       .  S
C3045      C3050   1.568       .  S
C3045      C3052   1.572       .  S
C3047      C3050   1.381       .  D
C3047      C3250   1.488       .  S
C3048      C3051   1.382       .  D
C3048      C3282   1.492       .  S
C3049      C3052   1.383       .  D
C3049      C3218   1.491       .  S
C3050      C3337   1.514       .  S
C3051      C3305   1.520       .  S
C3052      C3369   1.525       .  S
C3053      H3054   1.110       .  S
C3053      C3058   1.567       .  S
C3055      H3056   1.105       .  S
C3055      C3061   1.536       .  S
C3057      C3060   1.387       .  D
C3057      C3314   1.509       .  S
C3058      C3061   1.380       .  D
C3058      C3378   1.525       .  S
C3059      C3062   1.377       .  D
C3059      C3346   1.502       .  S
C3060      C3177   1.512       .  S
C3061      C3154   1.497       .  S
C3062      C3113   1.501       .  S
Zn3063     O3067   1.976       .  S
Zn3063     O3068   2.063       .  S
Zn3063     O3072   2.051       .  S
Zn3063     O3079   2.039       .  S
Zn3064     O3067   1.935       .  S
Zn3064     O3069   1.974       .  S
Zn3064     O3071   1.976       .  S
Zn3064     O3075   2.013       .  S
Zn3065     O3067   1.961       .  S
Zn3065     O3070   2.020       .  S
Zn3065     O3073   2.008       .  S
Zn3065     O3076   2.003       .  S
Zn3066     O3067   1.964       .  S
Zn3066     O3074   2.013       .  S
Zn3066     O3077   2.053       .  S
Zn3066     O3078   1.996       .  S
O3068      C3080   1.279       .  A
O3069      C3081   1.268       .  A
O3070      C3082   1.272       .  A
O3071      C3080   1.268       .  A
O3072      C3082   1.277       .  A
O3073      C3081   1.272       .  A
O3074      C3083   1.271       .  A
O3075      C3084   1.270       .  A
O3076      C3083   1.273       .  A
O3077      C3084   1.276       .  A
O3078      C3085   1.272       .  A
O3079      C3085   1.278       .  A
C3080      C3762   1.483       .  S
C3081      C3730   1.466       .  S
C3082      C3186   1.490       .  S
C3083      C3145   1.485       .  S
C3084      C3689   1.500       .  S
C3085      C3122   1.473       .  S
Zn3086     O3090   1.939   1_556  S
Zn3086     O3095   1.979   1_455  S
Zn3087     O3094   2.021   1_554  S
Zn3087     O3098   2.005       .  S
Zn3088     O3090   1.967   1_655  S
Zn3088     O3093   2.043   1_554  S
Zn3088     O3099   2.036       .  S
Zn3089     O3101   2.026   1_554  S
O3091      C3103   1.270       .  A
O3092      C3104   1.273       .  A
O3093      C3105   1.278       .  A
O3094      C3103   1.272       .  A
O3095      C3105   1.267       .  A
O3096      C3104   1.275       .  A
O3097      C3106   1.272       .  A
O3098      C3107   1.271       .  A
O3099      C3106   1.276       .  A
O3100      C3107   1.272       .  A
O3101      C3108   1.273       .  A
O3102      C3108   1.268       .  A
C3103      C3433   1.484       .  S
C3104      C3273   1.484       .  S
C3105      C3410   1.476       .  S
C3106      C3209   1.486       .  S
C3107      C3241   1.472       .  S
C3108      C3465   1.472       .  S
C3109      C3110   1.393       .  A
C3109      C3114   1.399       .  A
C3109      H3119   1.086       .  S
C3110      C3115   1.480       .  S
C3110      C3111   1.411       .  A
C3111      C3112   1.410       .  A
C3111      C3116   1.518       .  S
C3112      C3113   1.409       .  A
C3112      H3117   1.083       .  S
C3113      C3114   1.428       .  A
C3115      C3120   1.418       .  A
C3115      C3124   1.400       .  A
C3116      F3132   1.383       .  S
C3116      F3133   1.381       .  S
C3116      F3134   1.384       .  S
C3118      F3129   1.385   1_545  S
C3118      F3130   1.382       .  S
C3118      F3131   1.369   1_545  S
C3120      C3121   1.408       .  A
C3120      C3125   1.521       .  S
C3121      C3122   1.400       .  A
C3121      H3126   1.083       .  S
C3122      C3123   1.419       .  A
C3123      C3124   1.406       .  A
C3123      C3127   1.522       .  S
C3124      H3128   1.083       .  S
C3125      F3138   1.384       .  S
C3125      F3139   1.382       .  S
C3125      F3140   1.381       .  S
C3127      F3135   1.384       .  S
C3127      F3136   1.382       .  S
C3127      F3137   1.385       .  S
C3141      C3142   1.401       .  A
C3141      C3146   1.409       .  A
C3141      H3151   1.083       .  S
C3142      C3147   1.478       .  S
C3142      C3143   1.413       .  A
C3143      C3144   1.402       .  A
C3143      C3148   1.522       .  S
C3144      C3145   1.406       .  A
C3144      H3149   1.083       .  S
C3145      C3146   1.423       .  A
C3146      C3150   1.520       .  S
C3147      C3152   1.410       .  A
C3147      C3156   1.397       .  A
C3148      F3164   1.382       .  S
C3148      F3165   1.382       .  S
C3148      F3166   1.384       .  S
C3150      F3161   1.385       .  S
C3150      F3162   1.383       .  S
C3150      F3163   1.383       .  S
C3152      C3153   1.405       .  A
C3152      C3157   1.518       .  S
C3153      C3154   1.408       .  A
C3153      H3158   1.081       .  S
C3154      C3155   1.423       .  A
C3155      C3156   1.401       .  A
C3155      C3159   1.515   1_655  S
C3156      H3160   1.085       .  S
C3157      F3170   1.384       .  S
C3157      F3171   1.383       .  S
C3157      F3172   1.382       .  S
C3159      F3167   1.385       .  S
C3159      F3168   1.382       .  S
C3159      F3169   1.372       .  S
C3173      C3174   1.397       .  A
C3173      C3178   1.409       .  A
C3173      H3183   1.083       .  S
C3174      C3179   1.489       .  S
C3174      C3175   1.412       .  A
C3175      C3176   1.408       .  A
C3175      C3180   1.519       .  S
C3176      C3177   1.410       .  A
C3177      C3178   1.431       .  A
C3178      C3182   1.521       .  S
C3179      C3184   1.416       .  A
C3179      C3188   1.401       .  A
C3180      F3196   1.382       .  S
C3180      F3197   1.382       .  S
C3182      F3193   1.372       .  S
C3182      F3195   1.378       .  S
C3184      C3185   1.411       .  A
C3184      C3189   1.520       .  S
C3185      C3186   1.406       .  A
C3185      H3190   1.083       .  S
C3186      C3187   1.421       .  A
C3187      C3188   1.409       .  A
C3187      C3191   1.519       .  S
C3188      H3192   1.083       .  S
C3189      F3202   1.384       .  S
C3189      F3203   1.382       .  S
C3189      F3204   1.382       .  S
C3191      F3199   1.384       .  S
C3191      F3200   1.382       .  S
C3191      F3201   1.385       .  S
C3205      C3206   1.398       .  A
C3205      C3210   1.405       .  A
C3205      H3215   1.084       .  S
C3206      C3211   1.483       .  S
C3206      C3207   1.416       .  A
C3207      C3208   1.409       .  A
C3207      C3212   1.520       .  S
C3208      C3209   1.406       .  A
C3208      H3213   1.083       .  S
C3209      C3210   1.423       .  A
C3210      C3214   1.520       .  S
C3211      C3216   1.415       .  A
C3211      C3220   1.401       .  A
C3212      F3228   1.382       .  S
C3212      F3229   1.382       .  S
C3212      F3230   1.385       .  S
C3214      F3225   1.385   1_655  S
C3214      F3226   1.383       .  S
C3214      F3227   1.383   1_655  S
C3216      C3217   1.403       .  A
C3216      C3221   1.520       .  S
C3217      C3218   1.404       .  A
C3217      H3222   1.083       .  S
C3218      C3219   1.421       .  A
C3219      C3220   1.405       .  A
C3219      C3223   1.515       .  S
C3220      H3224   1.084       .  S
C3221      F3234   1.385       .  S
C3221      F3235   1.381       .  S
C3221      F3236   1.382       .  S
C3223      F3231   1.382       .  S
C3223      F3232   1.375       .  S
C3223      F3233   1.384       .  S
C3237      C3238   1.399       .  A
C3237      C3242   1.403       .  A
C3237      H3247   1.083       .  S
C3238      C3243   1.478       .  S
C3238      C3239   1.416       .  A
C3239      C3240   1.406       .  A
C3239      C3244   1.519       .  S
C3240      C3241   1.402       .  A
C3240      H3245   1.083       .  S
C3241      C3242   1.417       .  A
C3242      C3246   1.519       .  S
C3243      C3248   1.414       .  A
C3243      C3252   1.399       .  A
C3244      F3260   1.382       .  S
C3244      F3261   1.383       .  S
C3244      F3262   1.385       .  S
C3246      F3257   1.382       .  S
C3246      F3258   1.385       .  S
C3246      F3259   1.383       .  S
C3248      C3249   1.402       .  A
C3248      C3253   1.519       .  S
C3249      C3250   1.404       .  A
C3249      H3254   1.083       .  S
C3250      C3251   1.422       .  A
C3251      C3252   1.403       .  A
C3251      C3255   1.515       .  S
C3252      H3256   1.085       .  S
C3253      F3266   1.385       .  S
C3253      F3267   1.382       .  S
C3253      F3268   1.382       .  S
C3255      F3263   1.382       .  S
C3255      F3264   1.373       .  S
C3255      F3265   1.384       .  S
C3269      C3270   1.401       .  A
C3269      C3274   1.408       .  A
C3269      H3279   1.083       .  S
C3270      C3275   1.487       .  S
C3270      C3271   1.418       .  A
C3271      C3272   1.407       .  A
C3271      C3276   1.521       .  S
C3272      C3273   1.405       .  A
C3272      H3277   1.083       .  S
C3273      C3274   1.421       .  A
C3275      C3280   1.416       .  A
C3275      C3284   1.403       .  A
C3276      F3292   1.382       .  S
C3276      F3293   1.383       .  S
C3276      F3294   1.385       .  S
C3278      F3289   1.382       .  S
C3278      F3290   1.385       .  S
C3278      F3291   1.384       .  S
C3280      C3281   1.404       .  A
C3280      C3285   1.520       .  S
C3281      C3282   1.405       .  A
C3281      H3286   1.082       .  S
C3282      C3283   1.418       .  A
C3283      C3284   1.406       .  A
C3283      C3287   1.516       .  S
C3284      H3288   1.084       .  S
C3285      F3298   1.385       .  S
C3285      F3299   1.382       .  S
C3285      F3300   1.383       .  S
C3287      F3295   1.381       .  S
C3287      F3296   1.379       .  S
C3287      F3297   1.384       .  S
C3301      C3302   1.407       .  A
C3301      C3306   1.420       .  A
C3301      H3311   1.083       .  S
C3302      C3307   1.504       .  S
C3302      C3303   1.416       .  A
C3303      C3304   1.408       .  A
C3303      C3308   1.522       .  S
C3304      C3305   1.411       .  A
C3304      H3309   1.078       .  S
C3305      C3306   1.423       .  A
C3306      C3310   1.517       .  S
C3307      C3312   1.421       .  A
C3307      C3316   1.401       .  A
C3308      F3324   1.385       .  S
C3308      F3325   1.381       .  S
C3308      F3326   1.383       .  S
C3310      F3321   1.380       .  S
C3310      F3322   1.385       .  S
C3310      F3323   1.381       .  S
C3312      C3313   1.418       .  A
C3312      C3317   1.517       .  S
C3313      C3314   1.407       .  A
C3313      H3318   1.083   1_655  S
C3314      C3315   1.422       .  A
C3315      C3316   1.407       .  A
C3315      C3319   1.512       .  S
C3316      H3320   1.084       .  S
C3317      F3330   1.385   1_655  S
C3317      F3331   1.382       .  S
C3317      F3332   1.383       .  S
C3319      F3327   1.382       .  S
C3319      F3328   1.376       .  S
C3319      F3329   1.384       .  S
C3333      C3334   1.407       .  A
C3333      C3338   1.418       .  A
C3333      H3343   1.083       .  S
C3334      C3339   1.491       .  S
C3334      C3335   1.414       .  A
C3335      C3336   1.402       .  A
C3335      C3340   1.521       .  S
C3336      C3337   1.409       .  A
C3336      H3341   1.081       .  S
C3337      C3338   1.423       .  A
C3338      C3342   1.518       .  S
C3339      C3344   1.417       .  A
C3339      C3348   1.400       .  A
C3340      F3356   1.383       .  S
C3340      F3357   1.381       .  S
C3340      F3358   1.383       .  S
C3342      F3353   1.377       .  S
C3342      F3354   1.385       .  S
C3342      F3355   1.381       .  S
C3344      C3345   1.412       .  A
C3344      C3349   1.516       .  S
C3345      C3346   1.405       .  A
C3345      H3350   1.080       .  S
C3346      C3347   1.423       .  A
C3347      C3348   1.405       .  A
C3347      C3351   1.515       .  S
C3348      H3352   1.085       .  S
C3349      F3362   1.382       .  S
C3349      F3363   1.383       .  S
C3349      F3364   1.385       .  S
C3351      F3359   1.383       .  S
C3351      F3360   1.377       .  S
C3351      F3361   1.383       .  S
C3365      C3366   1.407       .  A
C3365      C3370   1.423       .  A
C3365      H3375   1.083       .  S
C3366      C3371   1.509       .  S
C3366      C3367   1.418       .  A
C3367      C3368   1.410       .  A
C3367      C3372   1.521       .  S
C3368      C3369   1.410       .  A
C3368      H3373   1.082       .  S
C3369      C3370   1.428       .  A
C3370      C3374   1.518       .  S
C3371      C3376   1.422       .  A
C3371      C3380   1.396       .  A
C3372      F3388   1.381       .  S
C3372      F3389   1.382       .  S
C3372      F3390   1.385       .  S
C3374      F3385   1.385       .  S
C3374      F3386   1.380       .  S
C3374      F3387   1.377       .  S
C3376      C3377   1.425       .  A
C3376      C3381   1.516       .  S
C3377      C3378   1.410       .  A
C3377      H3382   1.081       .  S
C3378      C3379   1.427       .  A
C3379      C3380   1.405       .  A
C3379      C3383   1.507   1_655  S
C3380      H3384   1.085       .  S
C3381      F3394   1.384       .  S
C3381      F3395   1.382       .  S
C3381      F3396   1.383       .  S
C3383      F3391   1.381       .  S
C3397      C3398   1.393       .  A
C3397      C3402   1.400       .  A
C3397      H3407   1.086       .  S
C3398      C3403   1.478       .  S
C3398      C3399   1.410       .  A
C3399      C3400   1.409       .  A
C3399      C3404   1.516       .  S
C3400      C3401   1.414       .  A
C3400      H3405   1.076       .  S
C3401      C3402   1.435       .  A
C3402      C3406   1.524       .  S
C3403      C3408   1.420       .  A
C3403      C3412   1.400       .  A
C3404      F3420   1.382       .  S
C3404      F3421   1.383       .  S
C3404      F3422   1.384       .  S
C3406      F3417   1.376       .  S
C3406      F3418   1.387       .  S
C3406      F3419   1.382       .  S
C3408      C3409   1.402       .  A
C3408      C3413   1.520       .  S
C3409      C3410   1.400       .  A
C3409      H3414   1.085       .  S
C3410      C3411   1.421       .  A
C3411      C3412   1.407       .  A
C3411      C3415   1.521       .  S
C3412      H3416   1.083       .  S
C3413      F3426   1.384       .  S
C3413      F3427   1.383       .  S
C3413      F3428   1.381       .  S
C3415      F3423   1.385       .  S
C3415      F3424   1.383       .  S
C3415      F3425   1.382       .  S
C3429      C3430   1.402       .  A
C3429      C3434   1.409       .  A
C3429      H3439   1.083       .  S
C3430      C3435   1.478       .  S
C3430      C3431   1.412       .  A
C3431      C3432   1.400       .  A
C3431      C3436   1.520       .  S
C3432      C3433   1.406       .  A
C3432      H3437   1.083       .  S
C3433      C3434   1.422       .  A
C3434      C3438   1.520       .  S
C3435      C3440   1.413       .  A
C3435      C3444   1.395       .  A
C3436      F3452   1.382       .  S
C3436      F3453   1.379       .  S
C3436      F3454   1.384       .  S
C3438      F3449   1.384       .  S
C3438      F3450   1.383   1_556  S
C3438      F3451   1.384       .  S
C3440      C3441   1.409       .  A
C3440      C3445   1.519       .  S
C3441      C3442   1.408       .  A
C3441      H3446   1.083       .  S
C3442      C3443   1.421       .  A
C3443      C3444   1.399       .  A
C3443      C3447   1.512       .  S
C3444      H3448   1.085       .  S
C3445      F3458   1.385       .  S
C3445      F3459   1.383       .  S
C3445      F3460   1.382       .  S
C3447      F3455   1.382       .  S
C3447      F3456   1.370       .  S
C3447      F3457   1.384       .  S
C3461      C3462   1.402       .  A
C3461      C3466   1.406       .  A
C3461      H3471   1.083       .  S
C3462      C3467   1.472       .  S
C3462      C3463   1.414       .  A
C3463      C3464   1.400       .  A
C3463      C3468   1.522       .  S
C3464      C3465   1.404       .  A
C3464      H3469   1.083       .  S
C3465      C3466   1.417       .  A
C3466      C3470   1.518       .  S
C3467      C3472   1.410       .  A
C3467      C3476   1.393       .  A
C3468      F3484   1.382       .  S
C3468      F3485   1.381       .  S
C3468      F3486   1.385       .  S
C3470      F3481   1.385       .  S
C3470      F3482   1.383   1_556  S
C3470      F3483   1.383       .  S
C3472      C3473   1.405       .  A
C3472      C3477   1.519       .  S
C3473      C3474   1.411       .  A
C3473      H3478   1.083       .  S
C3474      C3475   1.428       .  A
C3475      C3476   1.398       .  A
C3475      C3479   1.512       .  S
C3476      H3480   1.086       .  S
C3477      F3490   1.385       .  S
C3477      F3491   1.382       .  S
C3477      F3492   1.381       .  S
C3479      F3487   1.383       .  S
C3479      F3488   1.362       .  S
C3479      F3489   1.384       .  S
C3493      C3494   1.404       .  A
C3493      C3498   1.419       .  A
C3493      H3503   1.083       .  S
C3494      C3499   1.505       .  S
C3494      C3495   1.416       .  A
C3495      C3496   1.414       .  A
C3495      C3500   1.520       .  S
C3496      C3497   1.413       .  A
C3496      H3501   1.081       .  S
C3497      C3498   1.428       .  A
C3499      C3504   1.417       .  A
C3499      C3508   1.400       .  A
C3500      F3516   1.382       .  S
C3500      F3517   1.382       .  S
C3502      F3513   1.385       .  S
C3502      F3514   1.380       .  S
C3502      F3515   1.377       .  S
C3504      C3505   1.406       .  A
C3504      C3509   1.508       .  S
C3505      C3506   1.393       .  A
C3505      H3510   1.061       .  S
C3506      C3507   1.434       .  A
C3507      C3508   1.413       .  A
C3507      C3511   1.516       .  S
C3508      H3512   1.084       .  S
C3509      F3522   1.385       .  S
C3509      F3523   1.382       .  S
C3509      F3524   1.380       .  S
C3511      F3519   1.381       .  S
C3511      F3520   1.376       .  S
C3511      F3521   1.384       .  S
C3525      C3526   1.397       .  A
C3525      C3530   1.412       .  A
C3525      H3535   1.083       .  S
C3526      C3531   1.494       .  S
C3526      C3527   1.414       .  A
C3527      C3528   1.410       .  A
C3527      C3532   1.519       .  S
C3528      C3529   1.411       .  A
C3528      H3533   1.082       .  S
C3529      C3530   1.432       .  A
C3530      C3534   1.516       .  S
C3531      C3536   1.416       .  A
C3531      C3540   1.394       .  A
C3532      F3548   1.381       .  S
C3532      F3549   1.382       .  S
C3532      F3550   1.384       .  S
C3534      F3545   1.385       .  S
C3534      F3546   1.379       .  S
C3534      F3547   1.370       .  S
C3536      C3537   1.411       .  A
C3536      C3541   1.517       .  S
C3537      C3538   1.402       .  A
C3538      C3539   1.434       .  A
C3539      C3540   1.404       .  A
C3539      C3543   1.514       .  S
C3540      H3544   1.085       .  S
C3541      F3555   1.382       .  S
C3541      F3556   1.380       .  S
C3543      F3551   1.381       .  S
C3543      F3552   1.368       .  S
C3543      F3553   1.384       .  S
C3557      C3558   1.404       .  A
C3557      C3562   1.416       .  A
C3557      H3567   1.081       .  S
C3558      C3563   1.511       .  S
C3558      C3559   1.423       .  A
C3559      C3560   1.417       .  A
C3559      C3564   1.518       .  S
C3560      C3561   1.413       .  A
C3560      H3565   1.085       .  S
C3561      C3562   1.424       .  A
C3563      C3568   1.417       .  A
C3563      C3572   1.399       .  A
C3564      F3580   1.381       .  S
C3564      F3581   1.383       .  S
C3564      F3582   1.383       .  S
C3566      F3578   1.382       .  S
C3566      F3579   1.380       .  S
C3568      C3569   1.420       .  A
C3568      C3573   1.518       .  S
C3569      C3570   1.415       .  A
C3569      H3574   1.073       .  S
C3570      C3571   1.427       .  A
C3571      C3572   1.415       .  A
C3571      C3575   1.504       .  S
C3572      H3576   1.080       .  S
C3573      F3586   1.385       .  S
C3573      F3587   1.383       .  S
C3573      F3588   1.381       .  S
C3575      F3583   1.385       .  S
C3575      F3584   1.383       .  S
C3575      F3585   1.380       .  S
C3589      C3590   1.388       .  A
C3589      C3594   1.402       .  A
C3589      H3599   1.085       .  S
C3590      C3595   1.476       .  S
C3590      C3591   1.406       .  A
C3591      C3592   1.408       .  A
C3591      C3596   1.516       .  S
C3592      C3593   1.416       .  A
C3592      H3597   1.077       .  S
C3593      C3594   1.444       .  A
C3595      C3600   1.421       .  A
C3595      C3604   1.403       .  A
C3596      F3612   1.383       .  S
C3596      F3613   1.382       .  S
C3596      F3614   1.383       .  S
C3598      F3609   1.386       .  S
C3598      F3611   1.383       .  S
C3600      C3601   1.401       .  A
C3600      C3605   1.521       .  S
C3601      C3602   1.398       .  A
C3601      H3606   1.085       .  S
C3602      C3603   1.415       .  A
C3603      C3604   1.406       .  A
C3603      C3607   1.519       .  S
C3604      H3608   1.083       .  S
C3605      F3618   1.383   1_565  S
C3605      F3620   1.381   1_565  S
C3607      F3615   1.385       .  S
C3607      F3616   1.384       .  S
C3607      F3617   1.382       .  S
C3621      C3622   1.389       .  A
C3621      C3626   1.399       .  A
C3621      H3631   1.086       .  S
C3622      C3627   1.480       .  S
C3622      C3623   1.411       .  A
C3623      C3624   1.409       .  A
C3623      C3628   1.517       .  S
C3624      C3625   1.412       .  A
C3625      C3626   1.435       .  A
C3626      C3630   1.512       .  S
C3627      C3632   1.417       .  A
C3627      C3636   1.401       .  A
C3628      F3645   1.382       .  S
C3630      F3641   1.384       .  S
C3630      F3642   1.383       .  S
C3630      F3643   1.356       .  S
C3632      C3633   1.405       .  A
C3632      C3637   1.520       .  S
C3633      C3634   1.403       .  A
C3633      H3638   1.084       .  S
C3634      C3635   1.416       .  A
C3635      C3636   1.407       .  A
C3635      C3639   1.517       .  S
C3636      H3640   1.083       .  S
C3637      F3650   1.385       .  S
C3637      F3651   1.381       .  S
C3637      F3652   1.382       .  S
C3639      F3647   1.382       .  S
C3639      F3648   1.384       .  S
C3639      F3649   1.385       .  S
C3653      C3654   1.397       .  A
C3653      C3658   1.399       .  A
C3653      H3663   1.085       .  S
C3654      C3659   1.472       .  S
C3654      C3655   1.410       .  A
C3655      C3656   1.403       .  A
C3655      C3660   1.518       .  S
C3656      C3657   1.407       .  A
C3657      C3658   1.429       .  A
C3659      C3664   1.416       .  A
C3659      C3668   1.398       .  A
C3660      F3676   1.382       .  S
C3660      F3677   1.382       .  S
C3662      F3673   1.381       .  S
C3662      F3674   1.375       .  S
C3662      F3675   1.370       .  S
C3664      C3665   1.404       .  A
C3664      C3669   1.520       .  S
C3665      C3666   1.403       .  A
C3665      H3670   1.083       .  S
C3666      C3667   1.419       .  A
C3667      C3668   1.399       .  A
C3667      C3671   1.519       .  S
C3668      H3672   1.084       .  S
C3669      F3682   1.385       .  S
C3669      F3683   1.382       .  S
C3669      F3684   1.382       .  S
C3671      F3679   1.383       .  S
C3671      F3680   1.384       .  S
C3671      F3681   1.385       .  S
C3685      C3686   1.400       .  A
C3685      C3690   1.412       .  A
C3685      H3695   1.083       .  S
C3686      C3691   1.495       .  S
C3686      C3687   1.417       .  A
C3687      C3688   1.411       .  A
C3687      C3692   1.517       .  S
C3688      C3689   1.407       .  A
C3688      H3693   1.083       .  S
C3689      C3690   1.428       .  A
C3690      C3694   1.521       .  S
C3691      C3696   1.416       .  A
C3691      C3700   1.400       .  A
C3692      F3708   1.382       .  S
C3692      F3709   1.381       .  S
C3692      F3710   1.384       .  S
C3694      F3705   1.383       .  S
C3694      F3706   1.385       .  S
C3694      F3707   1.384       .  S
C3696      C3697   1.412       .  A
C3696      C3701   1.517       .  S
C3697      C3698   1.410       .  A
C3697      H3702   1.079       .  S
C3698      C3699   1.421       .  A
C3699      C3700   1.408       .  A
C3699      C3703   1.510       .  S
C3700      H3704   1.084       .  S
C3701      F3714   1.384       .  S
C3701      F3715   1.383       .  S
C3701      F3716   1.382       .  S
C3703      F3711   1.385       .  S
C3703      F3712   1.378       .  S
C3703      F3713   1.382       .  S
C3717      C3718   1.394       .  A
C3717      C3722   1.404       .  A
C3717      H3727   1.084       .  S
C3718      C3723   1.476       .  S
C3718      C3719   1.410       .  A
C3719      C3720   1.403       .  A
C3719      C3724   1.521       .  S
C3720      C3721   1.413       .  A
C3720      H3725   1.080       .  S
C3721      C3722   1.430       .  A
C3722      C3726   1.514       .  S
C3723      C3728   1.413       .  A
C3724      F3740   1.381       .  S
C3724      F3741   1.380       .  S
C3724      F3742   1.384       .  S
C3726      F3737   1.382       .  S
C3726      F3738   1.385       .  S
C3726      F3739   1.369       .  S
C3728      C3733   1.518       .  S
C3729      C3730   1.405       .  A
C3729      H3734   1.083       .  S
C3730      C3731   1.416       .  A
C3731      C3732   1.395       .  A
C3731      C3735   1.520       .  S
C3732      H3736   1.084   1_655  S
C3733      F3746   1.384       .  S
C3733      F3747   1.382       .  S
C3733      F3748   1.381       .  S
C3735      F3743   1.384       .  S
C3735      F3744   1.382       .  S
C3735      F3745   1.385       .  S
C3749      C3750   1.390       .  A
C3749      C3754   1.395       .  A
C3749      H3759   1.084       .  S
C3750      C3755   1.474   1_565  S
C3750      C3751   1.412       .  A
C3751      C3752   1.410       .  A
C3751      C3756   1.517   1_565  S
C3752      C3753   1.411       .  A
C3752      H3757   1.081       .  S
C3753      C3754   1.423       .  A
C3754      C3758   1.507       .  S
C3755      C3760   1.416       .  A
C3756      F3774   1.384   1_545  S
C3758      F3769   1.376       .  S
C3758      F3770   1.385       .  S
C3758      F3771   1.377       .  S
C3760      C3765   1.519   1_545  S
C3761      C3762   1.406       .  A
C3761      H3766   1.083       .  S
C3762      C3763   1.423       .  A
C3763      C3764   1.403       .  A
C3763      C3767   1.522       .  S
C3764      H3768   1.084       .  S
C3765      F3778   1.384       .  S
C3765      F3779   1.382       .  S
C3765      F3780   1.382       .  S
C3767      F3775   1.385       .  S
C3767      F3776   1.384       .  S
C3767      F3777   1.383       .  S
C3781      C3782   1.393       .  A
C3781      C3786   1.405       .  A
C3781      H3791   1.083       .  S
C3782      C3787   1.487       .  S
C3782      C3783   1.411       .  A
C3783      C3784   1.412       .  A
C3783      C3788   1.517       .  S
C3784      C3785   1.412       .  A
C3784      H3789   1.076       .  S
C3785      C3786   1.430       .  A
C3786      C3790   1.510       .  S
C3787      C3792   1.419       .  A
C3787      C3796   1.407       .  A
C3788      F3804   1.383       .  S
C3788      F3805   1.382       .  S
C3788      F3806   1.385       .  S
C3790      F3801   1.375       .  S
C3790      F3802   1.385       .  S
C3790      F3803   1.375       .  S
C3792      C3793   1.402       .  A
C3792      C3797   1.514       .  S
C3793      C3794   1.398       .  A
C3793      H3798   1.085       .  S
C3794      C3795   1.415       .  A
C3795      C3796   1.411       .  A
C3795      C3799   1.516       .  S
C3796      H3800   1.083       .  S
C3797      F3810   1.384       .  S
C3797      F3811   1.383       .  S
C3797      F3812   1.379       .  S
C3799      F3807   1.384       .  S
C3799      F3808   1.383       .  S
C3799      F3809   1.383       .  S
C3813      C3814   1.402       .  A
C3813      C3818   1.408       .  A
C3813      H3823   1.085       .  S
C3814      C3819   1.488       .  S
C3814      C3815   1.414       .  A
C3815      C3816   1.407       .  A
C3815      C3820   1.520       .  S
C3816      C3817   1.409       .  A
C3816      H3821   1.080       .  S
C3817      C3818   1.424       .  A
C3818      C3822   1.514       .  S
C3819      C3828   1.400       .  A
C3820      F3836   1.383       .  S
C3820      F3838   1.384       .  S
C3822      F3833   1.373       .  S
C3822      F3834   1.384       .  S
C3822      F3835   1.370       .  S
C3824      C3825   1.407       .  A
C3824      C3829   1.517       .  S
C3825      C3826   1.402       .  A
C3825      H3830   1.083       .  S
C3826      C3827   1.421       .  A
C3827      C3831   1.520       .  S
C3828      H3832   1.083       .  S
C3829      F3842   1.385       .  S
C3829      F3843   1.382       .  S
C3829      F3844   1.380       .  S
C3831      F3840   1.384       .  S
C3831      F3841   1.385       .  S
C3845      C3846   1.403       .  A
C3845      H3855   1.085       .  S
C3846      C3851   1.483       .  S
C3847      C3848   1.401       .  A
C3847      C3852   1.519       .  S
C3848      C3849   1.400       .  A
C3848      H3853   1.083       .  S
C3849      C3850   1.416       .  A
C3850      C3854   1.518       .  S
C3851      C3856   1.409       .  A
C3851      C3860   1.394       .  A
C3852      F3868   1.382       .  S
C3852      F3869   1.377       .  S
C3852      F3870   1.384       .  S
C3854      F3866   1.385   1_565  S
C3854      F3867   1.383       .  S
C3856      C3857   1.408       .  A
C3856      C3861   1.518       .  S
C3857      C3858   1.404       .  A
C3857      H3862   1.066       .  S
C3858      C3859   1.426       .  A
C3859      C3860   1.404       .  A
C3859      C3863   1.504       .  S
C3860      H3864   1.085       .  S
C3861      F3874   1.384       .  S
C3861      F3875   1.383       .  S
C3861      F3876   1.382       .  S
C3863      F3871   1.380       .  S
C3863      F3872   1.371       .  S
C3863      F3873   1.386       .  S
C3877      C3878   1.398       .  A
C3877      C3882   1.403       .  A
C3877      H3887   1.082       .  S
C3878      C3883   1.506       .  S
C3878      C3879   1.426       .  A
C3879      C3880   1.411       .  A
C3879      C3884   1.519       .  S
C3880      C3881   1.407       .  A
C3880      H3885   1.080       .  S
C3881      C3882   1.427       .  A
C3882      C3886   1.508       .  S
C3883      C3888   1.425       .  A
C3883      C3892   1.401       .  A
C3884      F3900   1.383       .  S
C3884      F3901   1.382       .  S
C3884      F3902   1.384       .  S
C3886      F3897   1.385       .  S
C3886      F3898   1.379       .  S
C3886      F3899   1.365       .  S
C3888      C3889   1.409       .  A
C3888      C3893   1.522       .  S
C3889      C3890   1.407       .  A
C3889      H3894   1.075       .  S
C3890      C3891   1.428       .  A
C3891      C3892   1.411       .  A
C3891      C3895   1.501       .  S
C3892      H3896   1.082       .  S
C3893      F3906   1.385       .  S
C3893      F3907   1.382       .  S
C3893      F3908   1.379       .  S
C3895      F3903   1.385       .  S
C3895      F3904   1.380       .  S
C3895      F3905   1.375       .  S
C3909      C3910   1.404       .  A
C3909      C3914   1.418       .  A
C3909      H3919   1.083       .  S
C3910      C3911   1.414       .  A
C3911      C3912   1.413       .  A
C3912      C3913   1.412       .  A
C3912      H3917   1.079       .  S
C3913      C3914   1.426       .  A
C3914      C3918   1.513       .  S
C3915      C3920   1.414       .  A
C3915      C3924   1.405       .  A
C3916      F3932   1.384       .  S
C3916      F3933   1.381       .  S
C3918      F3929   1.385       .  S
C3918      F3930   1.379       .  S
C3918      F3931   1.380       .  S
C3920      C3921   1.410       .  A
C3921      C3922   1.408       .  A
C3921      H3926   1.078       .  S
C3922      C3923   1.422       .  A
C3923      C3924   1.414       .  A
C3923      C3927   1.520       .  S
C3924      H3928   1.082       .  S
C3925      F3939   1.381   1_545  S
C3925      F3940   1.383       .  S
C3927      F3935   1.385       .  S
C3927      F3936   1.376       .  S
C3927      F3937   1.381       .  S
C3941      C3942   1.397       .  A
C3941      C3946   1.409       .  A
C3941      H3951   1.085       .  S
C3942      C3943   1.416       .  A
C3943      C3944   1.418       .  A
C3943      C3948   1.517       .  S
C3944      C3945   1.408       .  A
C3944      H3949   1.064       .  S
C3945      C3946   1.431       .  A
C3946      C3950   1.505       .  S
C3947      C3952   1.420       .  A
C3947      C3956   1.399       .  A
C3948      F3964   1.382       .  S
C3948      F3965   1.382       .  S
C3948      F3966   1.384       .  S
C3950      F3961   1.375       .  S
C3950      F3962   1.384       .  S
C3950      F3963   1.363       .  S
C3952      C3953   1.417       .  A
C3952      C3957   1.515       .  S
C3953      C3954   1.407       .  A
C3953      H3958   1.083       .  S
C3954      C3955   1.431       .  A
C3955      C3956   1.408       .  A
C3955      C3959   1.517       .  S
C3956      H3960   1.085       .  S
C3957      F3970   1.385       .  S
C3957      F3971   1.382       .  S
C3957      F3972   1.381       .  S
C3959      F3967   1.384       .  S
C3959      F3968   1.377       .  S
C3959      F3969   1.382       .  S
