geometry optimzed in LAMMPS
_audit_creation_date              2020-12-01 
_audit_creation_method            'lammps2cif' 
_symmetry_space_group_name_H-M    'P1' 
_symmetry_Int_Tables_number       1 
_symmetry_cell_setting            triclinic 
loop_ 
_symmetry_equiv_pos_as_xyz 
  x,y,z 
_cell_length_a                    53.67827829 
_cell_length_b                    53.711023747792424 
_cell_length_c                    32.70342029526557 
_cell_angle_alpha                 89.99619621360164 
_cell_angle_beta                  90.30888937036524 
_cell_angle_gamma                 90.09179164359631 
loop_ 
_atom_site_label 
_atom_site_type_symbol 
_atom_site_fract_x 
_atom_site_fract_y 
_atom_site_fract_z 
_atom_site_charge 
N1          N  0.39108574  0.85915607  0.03918379    -0.35900
N2          N  0.38538061  0.91381208  0.03665422    -0.56400
N3          N  0.38473261  0.91199502  0.94811891    -0.35900
N4          N  0.38843260  0.85718883  0.95045689    -0.56400
C5          C  0.38845100  0.86394018  0.07967732     0.27700
C6          C  0.39092636  0.83403190  0.03404659     0.27700
C7          C  0.37771581  0.93594598  0.95456845     0.27700
C8          C  0.37782843  0.90604936  0.90942008     0.27700
C9          C  0.38852559  0.91086093  0.07744257     0.36300
C10         C  0.38594862  0.93863296  0.02929169     0.36300
C11         C  0.39273823  0.83265348  0.95733304     0.36300
C12         C  0.38796987  0.86048413  0.90941048     0.36300
C13         C  0.38766776  0.84151110  0.10067455    -0.21200
C14         C  0.38936271  0.82281893  0.07217948    -0.21200
C15         C  0.36641741  0.94527382  0.91964078    -0.21200
C16         C  0.36634576  0.92644890  0.89133586    -0.21200
C17         C  0.39078732  0.93403746  0.09590862    -0.22200
C18         C  0.38961484  0.95144564  0.06553570    -0.22200
C19         C  0.39487557  0.82036965  0.92024796    -0.22200
C20         C  0.39205994  0.83787503  0.89020142    -0.22200
C21         C  0.38778674  0.88781558  0.09873174    -0.17600
C22         C  0.39239591  0.82078137  0.99623305    -0.17600
C23         C  0.38226532  0.88315827  0.88902631    -0.17600
C24         C  0.38134817  0.94989917  0.99084068    -0.17600
H25         H  0.38649883  0.83867622  0.13334180     0.15300
H26         H  0.38975619  0.80316712  0.07926693     0.15300
H27         H  0.35858522  0.96363822  0.91519668     0.15300
H28         H  0.35843235  0.92764557  0.86089944     0.15300
H29         H  0.39268993  0.93843774  0.12796813     0.13600
H30         H  0.39076064  0.97130771  0.07031525     0.13600
H31         H  0.39731940  0.80071833  0.91470015     0.13600
H32         H  0.39210515  0.83382861  0.85789380     0.13600
H33         H  0.39411792  0.87235104  0.01674962     0.26900
H34         H  0.39598656  0.90132600  0.96721410     0.26900
N35         N  0.38464872  0.85490047  0.44814007    -0.35900
N36         N  0.38270686  0.90908221  0.45081394    -0.56400
N37         N  0.38520614  0.90767362  0.53986731    -0.35900
N38         N  0.38401456  0.85345717  0.53738796    -0.56400
C39         C  0.37887984  0.85987925  0.40849178     0.27700
C40         C  0.38017287  0.83034833  0.45475436     0.27700
C41         C  0.37855380  0.93166696  0.53332122     0.27700
C42         C  0.37907557  0.90216142  0.57897793     0.27700
C43         C  0.38544426  0.90601685  0.40997651     0.36300
C44         C  0.38582124  0.93369135  0.45842348     0.36300
C45         C  0.38925719  0.82930614  0.52951469     0.36300
C46         C  0.38838173  0.85694375  0.57778571     0.36300
C47         C  0.37123724  0.83796680  0.38964633    -0.21200
C48         C  0.37157386  0.81960326  0.41885257    -0.21200
C49         C  0.36824354  0.94144280  0.56861196    -0.21200
C50         C  0.36854324  0.92286725  0.59733296    -0.21200
C51         C  0.38990151  0.92894758  0.39177934    -0.22200
C52         C  0.39070602  0.94621985  0.42237066    -0.22200
C53         C  0.39740750  0.81760063  0.56491329    -0.22200
C54         C  0.39650730  0.83498264  0.59551548    -0.22200
C55         C  0.38178329  0.88328779  0.38853494    -0.17600
C56         C  0.38469680  0.81717615  0.49177269    -0.17600
C57         C  0.38355681  0.87928495  0.59912916    -0.17600
C58         C  0.38206562  0.94527095  0.49676944    -0.17600
H59         H  0.36611372  0.83496727  0.35810054     0.15300
H60         H  0.36617513  0.80044186  0.41379585     0.15300
H61         H  0.36081997  0.95994887  0.57313083     0.15300
H62         H  0.36145383  0.92442347  0.62813291     0.15300
H63         H  0.39160624  0.93340935  0.35974281     0.13600
H64         H  0.39375173  0.96590496  0.41786066     0.13600
H65         H  0.40309745  0.79841473  0.56860393     0.13600
H66         H  0.40095308  0.83155566  0.62723112     0.13600
H67         H  0.39360874  0.86690175  0.46831888     0.26900
H68         H  0.39560777  0.89659503  0.52025287     0.26900
N69         N  0.40757386  0.21523132  0.03936205    -0.35900
N70         N  0.39849875  0.16156261  0.03683972    -0.56400
N71         N  0.39902929  0.16293993  0.94816337    -0.35900
N72         N  0.40489031  0.21643951  0.95036009    -0.56400
C73         C  0.40110410  0.21028177  0.07852648     0.27700
C74         C  0.40257195  0.23964164  0.03249445     0.27700
C75         C  0.38880491  0.14027871  0.95517393     0.27700
C76         C  0.39301612  0.16928768  0.90928655     0.27700
C77         C  0.40419108  0.16419328  0.07695503     0.36300
C78         C  0.39836075  0.13680198  0.02910937     0.36300
C79         C  0.41108128  0.24040034  0.95798036     0.36300
C80         C  0.40821482  0.21279968  0.90980971     0.36300
C81         C  0.39216356  0.23174318  0.09676078    -0.21200
C82         C  0.39288358  0.25015969  0.06773410    -0.21200
C83         C  0.37608007  0.13228517  0.92060783    -0.21200
C84         C  0.37864931  0.15061500  0.89171933    -0.21200
C85         C  0.40803461  0.14102386  0.09454844    -0.22200
C86         C  0.40396214  0.12370201  0.06442365    -0.22200
C87         C  0.41874759  0.25186243  0.92223956    -0.22200
C88         C  0.41689164  0.23445471  0.89180775    -0.22200
C89         C  0.40325771  0.18699855  0.09852115    -0.17600
C90         C  0.40683921  0.25272581  0.99550142    -0.17600
C91         C  0.40104800  0.19096757  0.88863584    -0.17600
C92         C  0.39174917  0.12600735  0.99114782    -0.17600
H93         H  0.38508174  0.23381607  0.12748452     0.15300
H94         H  0.38636292  0.26900056  0.07211927     0.15300
H95         H  0.36587400  0.11505236  0.91665497     0.15300
H96         H  0.37065929  0.15025453  0.86127715     0.15300
H97         H  0.41256083  0.13684753  0.12605674     0.13600
H98         H  0.40440248  0.10375955  0.06857618     0.13600
H99         H  0.42403373  0.27108061  0.91789271     0.13600
H100        H  0.42029581  0.23801711  0.85986646     0.13600
H101        H  0.41678801  0.20313068  0.01970539     0.26900
H102        H  0.41173140  0.17216031  0.96701760     0.26900
N103        N  0.40277647  0.21145712  0.44887618    -0.35900
N104        N  0.39735454  0.21203353  0.53764112    -0.56400
N105        N  0.39442596  0.15801583  0.53866958    -0.35900
N106        N  0.39638976  0.15759322  0.44940025    -0.56400
C107        C  0.39906974  0.23614861  0.45497587     0.27700
C108        C  0.40009591  0.20705713  0.40827864     0.27700
C109        C  0.38777877  0.16342481  0.57758189     0.27700
C110        C  0.38606222  0.13474618  0.53045448     0.27700
C111        C  0.40302580  0.23630213  0.53114982     0.36300
C112        C  0.40044027  0.20784110  0.57820590     0.36300
C113        C  0.40294377  0.16074123  0.40983530     0.36300
C114        C  0.39710127  0.13280786  0.45667924     0.36300
C115        C  0.39518215  0.24760191  0.41740526    -0.21200
C116        C  0.39527775  0.22930427  0.38830325    -0.21200
C117        C  0.37516031  0.14335312  0.59427849    -0.21200
C118        C  0.37404663  0.12529006  0.56457101    -0.21200
C119        C  0.40948730  0.24741579  0.56801695    -0.22200
C120        C  0.40862266  0.22935136  0.59722926    -0.22200
C121        C  0.40807290  0.13789068  0.39216580    -0.22200
C122        C  0.40414820  0.12025105  0.42160386    -0.22200
C123        C  0.40036412  0.24881317  0.49310646    -0.17600
C124        C  0.40236329  0.18366928  0.38853318    -0.17600
C125        C  0.39001341  0.12133062  0.49379037    -0.17600
C126        C  0.39356040  0.18567994  0.59878298    -0.17600
H127        H  0.39292541  0.26716610  0.41080314     0.15300
H128        H  0.39205369  0.23233043  0.35602773     0.15300
H129        H  0.36733606  0.14190507  0.62461134     0.15300
H130        H  0.36525555  0.10725338  0.56776540     0.15300
H131        H  0.41407036  0.26648663  0.57463911     0.13600
H132        H  0.41289807  0.23233091  0.62911040     0.13600
H133        H  0.41352835  0.13408718  0.36103992     0.13600
H134        H  0.40577873  0.10042300  0.41701799     0.13600
H135        H  0.40886125  0.19870844  0.47054997     0.26900
H136        H  0.40634752  0.16846929  0.52047557     0.26900
N137        N  0.75645813  0.56910240  0.05039470    -0.35900
N138        N  0.80981424  0.56212088  0.05506907    -0.56400
N139        N  0.81207315  0.56674469  0.96592894    -0.35900
N140        N  0.75827635  0.57075433  0.96112966    -0.56400
C141        C  0.75884805  0.56202844  0.09002518     0.27700
C142        C  0.73202497  0.56723890  0.04039349     0.27700
C143        C  0.83546269  0.55895416  0.97472938     0.27700
C144        C  0.80823432  0.56284796  0.92541834     0.27700
C145        C  0.80514911  0.56433136  0.09561984     0.36300
C146        C  0.83487253  0.56319453  0.05058761     0.36300
C147        C  0.73460867  0.57850883  0.96684420     0.36300
C148        C  0.76399701  0.57617147  0.92190737     0.36300
C149        C  0.73552537  0.55569950  0.10508696    -0.21200
C150        C  0.71880419  0.55855639  0.07370229    -0.21200
C151        C  0.84657275  0.54992965  0.93961414    -0.21200
C152        C  0.82938168  0.55223895  0.90862528    -0.21200
C153        C  0.82749855  0.56594996  0.11698491    -0.22200
C154        C  0.84623550  0.56546669  0.08850248    -0.22200
C155        C  0.72523993  0.58886554  0.93112791    -0.22200
C156        C  0.74384689  0.58737425  0.90265838    -0.22200
C157        C  0.78108976  0.56331057  0.11362558    -0.17600
C158        C  0.72100429  0.57519870  0.00327744    -0.17600
C159        C  0.78678816  0.57008271  0.90289001    -0.17600
C160        C  0.84768219  0.56111677  0.01295077    -0.17600
H161        H  0.73042698  0.55020402  0.13561588     0.15300
H162        H  0.69897201  0.55523659  0.07574436     0.15300
H163        H  0.86521429  0.54252902  0.93659470     0.15300
H164        H  0.83246276  0.54709662  0.87717286     0.15300
H165        H  0.83025413  0.56694699  0.14970450     0.13600
H166        H  0.86599151  0.56632104  0.09510311     0.13600
H167        H  0.70696561  0.59679633  0.92605443     0.13600
H168        H  0.74268449  0.59404264  0.87148838     0.13600
H169        H  0.76996624  0.57790673  0.03295578     0.26900
H170        H  0.80069208  0.57690892  0.98532218     0.26900
N171        N  0.76033889  0.56496273  0.55465232    -0.35900
N172        N  0.75692396  0.55946064  0.46643069    -0.56400
N173        N  0.81063916  0.55232100  0.46198337    -0.35900
N174        N  0.81413132  0.56078860  0.55062930    -0.56400
C175        C  0.73699542  0.57355276  0.54758801     0.27700
C176        C  0.76723626  0.57307233  0.59221570     0.27700
C177        C  0.80510729  0.55469120  0.42158504     0.27700
C178        C  0.83562822  0.55520986  0.46639785     0.27700
C179        C  0.73239840  0.55917082  0.47585802     0.36300
C180        C  0.75869952  0.55232698  0.42685126     0.36300
C181        C  0.81143029  0.55973181  0.59174146     0.36300
C182        C  0.83802090  0.55455198  0.54278703     0.36300
C183        C  0.72912938  0.58742282  0.58083869    -0.21200
C184        C  0.74818012  0.58709631  0.60898148    -0.21200
C185        C  0.82711126  0.55781844  0.40002419    -0.21200
C186        C  0.84623471  0.55832665  0.42819771    -0.21200
C187        C  0.71858300  0.55137413  0.44242487    -0.22200
C188        C  0.73508048  0.54735070  0.41135915    -0.22200
C189        C  0.83367374  0.55255527  0.60992464    -0.22200
C190        C  0.85054302  0.54956311  0.57899981    -0.22200
C191        C  0.72219151  0.56824497  0.51277992    -0.17600
C192        C  0.78961565  0.56687311  0.61282779    -0.17600
C193        C  0.84923903  0.55491371  0.50377897    -0.17600
C194        C  0.78089626  0.55335542  0.40352356    -0.17600
H195        H  0.71149195  0.59685642  0.58455403     0.15300
H196        H  0.74801290  0.59622996  0.63847393     0.15300
H197        H  0.82939611  0.55943606  0.36730843     0.15300
H198        H  0.86576394  0.56078260  0.42119207     0.15300
H199        H  0.69857652  0.54950012  0.44005812     0.13600
H200        H  0.72975605  0.54198973  0.38076658     0.13600
H201        H  0.83774387  0.55021313  0.64205702     0.13600
H202        H  0.86991026  0.54451956  0.58282824     0.13600
H203        H  0.76977257  0.55186430  0.53717834     0.26900
H204        H  0.79833888  0.54736617  0.48495826     0.26900
N205        N  0.11774341  0.56667516  0.03711830    -0.35900
N206        N  0.11573123  0.56843692  0.94856204    -0.56400
N207        N  0.06107587  0.56286183  0.95098706    -0.35900
N208        N  0.06292612  0.56474409  0.03951642    -0.56400
C209        C  0.14118708  0.57435055  0.02806106     0.27700
C210        C  0.11308948  0.57384737  0.07609448     0.27700
C211        C  0.06453893  0.56817704  0.91085215     0.27700
C212        C  0.03648462  0.56607675  0.95921542     0.27700
C213        C  0.14070212  0.56598405  0.95360933     0.36300
C214        C  0.11095931  0.56418715  0.90848356     0.36300
C215        C  0.06822897  0.56206043  0.07981226     0.36300
C216        C  0.03839431  0.55932965  0.03471733     0.36300
C217        C  0.15141844  0.58652501  0.06151198    -0.21200
C218        C  0.13372063  0.58630052  0.09166544    -0.21200
C219        C  0.04186191  0.57448892  0.89330035    -0.21200
C220        C  0.02421356  0.57272792  0.92336946    -0.21200
C221        C  0.15173668  0.56012920  0.91669365    -0.22200
C222        C  0.13297218  0.55885495  0.88828113    -0.22200
C223        C  0.04707486  0.55453776  0.10051399    -0.22200
C224        C  0.02815811  0.55338569  0.07233097    -0.22200
C225        C  0.15376125  0.57040339  0.99061915    -0.17600
C226        C  0.09117600  0.56862235  0.09866321    -0.17600
C227        C  0.02472885  0.56214309  0.99768575    -0.17600
C228        C  0.08736726  0.56669088  0.88915853    -0.17600
H229        H  0.16957207  0.59521468  0.06376622     0.15300
H230        H  0.13578091  0.59470951  0.12155271     0.15300
H231        H  0.03819214  0.57980585  0.86194753     0.15300
H232        H  0.00456442  0.57588605  0.91857713     0.15300
H233        H  0.17120365  0.55653574  0.91077173     0.13600
H234        H  0.13538576  0.55402284  0.85644537     0.13600
H235        H  0.04514872  0.55059616  0.13276220     0.13600
H236        H  0.00903351  0.54907155  0.07952979     0.13600
H237        H  0.10656406  0.55507583  0.01925977     0.26900
H238        H  0.07436584  0.55531003  0.97055239     0.26900
N239        N  0.11724414  0.56939880  0.45002054    -0.35900
N240        N  0.06287753  0.56486170  0.44999228    -0.56400
N241        N  0.06336492  0.56524880  0.53835721    -0.35900
N242        N  0.11745030  0.57275366  0.53895578    -0.56400
C243        C  0.11154059  0.57507205  0.41067072     0.27700
C244        C  0.14036028  0.57858683  0.45776460     0.27700
C245        C  0.03859376  0.56800670  0.53120336     0.27700
C246        C  0.06763062  0.57125489  0.57800255     0.27700
C247        C  0.06739874  0.56087521  0.40983298     0.36300
C248        C  0.03879987  0.55845629  0.45663205     0.36300
C249        C  0.14211414  0.56977844  0.53202079     0.36300
C250        C  0.11373315  0.56697896  0.57873949     0.36300
C251        C  0.13116051  0.58815887  0.39344803    -0.21200
C252        C  0.14927263  0.59040117  0.42309622    -0.21200
C253        C  0.02710119  0.57548364  0.56712441    -0.21200
C254        C  0.04540689  0.57805613  0.59617205    -0.21200
C255        C  0.04619636  0.55155387  0.39096734    -0.22200
C256        C  0.02801921  0.55048007  0.42026557    -0.22200
C257        C  0.15401881  0.56196130  0.56744859    -0.22200
C258        C  0.13607043  0.56028982  0.59705520    -0.22200
C259        C  0.08955517  0.56793118  0.38939531    -0.17600
C260        C  0.15403919  0.57538606  0.49464237    -0.17600
C261        C  0.09061833  0.56870130  0.59907303    -0.17600
C262        C  0.02599668  0.56220321  0.49405844    -0.17600
H263        H  0.13229881  0.59557021  0.36274760     0.15300
H264        H  0.16692553  0.59987352  0.41948320     0.15300
H265        H  0.00753540  0.57827479  0.57290457     0.15300
H266        H  0.04243219  0.58380486  0.62746538     0.15300
H267        H  0.04378605  0.54643666  0.35920725     0.13600
H268        H  0.00900620  0.54479556  0.41467874     0.13600
H269        H  0.17353575  0.55758882  0.57156171     0.13600
H270        H  0.13912869  0.55446349  0.62834784     0.13600
H271        H  0.10711949  0.55763942  0.46903436     0.26900
H272        H  0.07613791  0.55687922  0.51898052     0.26900
N273        N  0.47775424  0.21053992  0.03945781    -0.35900
N274        N  0.47533374  0.21135141  0.95096501    -0.56400
N275        N  0.47538539  0.15613522  0.95059310    -0.35900
N276        N  0.47301016  0.15588660  0.03922823    -0.56400
C277        C  0.47389194  0.23520258  0.03278165     0.27700
C278        C  0.47342175  0.20606634  0.07956506     0.27700
C279        C  0.47042689  0.16125747  0.91080029     0.27700
C280        C  0.46873147  0.13207576  0.95739183     0.27700
C281        C  0.48145524  0.23553002  0.95793734     0.36300
C282        C  0.48056124  0.20672601  0.91120614     0.36300
C283        C  0.47825340  0.15970731  0.07927699     0.36300
C284        C  0.47569127  0.13111935  0.03253004     0.36300
C285        C  0.46670172  0.24638278  0.06899889    -0.21200
C286        C  0.46686805  0.22820017  0.09848998    -0.21200
C287        C  0.46065312  0.14015115  0.89218799    -0.21200
C288        C  0.45970610  0.12179415  0.92142582    -0.21200
C289        C  0.49059273  0.24619614  0.92249290    -0.22200
C290        C  0.49004328  0.22803690  0.89303747    -0.22200
C291        C  0.48433580  0.13726001  0.09783921    -0.22200
C292        C  0.48252089  0.11920849  0.06839142    -0.22200
C293        C  0.47857956  0.24817161  0.99573396    -0.17600
C294        C  0.47653438  0.18287874  0.09992549    -0.17600
C295        C  0.47126293  0.11892405  0.99480452    -0.17600
C296        C  0.47566491  0.18401087  0.89036751    -0.17600
H297        H  0.46227664  0.26576229  0.07410820     0.15300
H298        H  0.46330573  0.23135203  0.13047175     0.15300
H299        H  0.45495105  0.13796860  0.86066447     0.15300
H300        H  0.45323114  0.10295851  0.91652600     0.15300
H301        H  0.49752190  0.26493417  0.91829148     0.13600
H302        H  0.49632901  0.23027080  0.86188006     0.13600
H303        H  0.48977943  0.13408398  0.12929703     0.13600
H304        H  0.48623295  0.09959502  0.07282496     0.13600
H305        H  0.48576716  0.19805924  0.01920247     0.26900
H306        H  0.48504053  0.16767563  0.97066570     0.26900
N307        N  0.47580277  0.20892920  0.44915380    -0.35900
N308        N  0.46833210  0.15449960  0.45132322    -0.56400
N309        N  0.46754904  0.15684545  0.53998492    -0.35900
N310        N  0.47144709  0.21149133  0.53778486    -0.56400
C311        C  0.47339419  0.20383705  0.40869061     0.27700
C312        C  0.47425206  0.23401306  0.45394224     0.27700
C313        C  0.46041009  0.13286763  0.53386055     0.27700
C314        C  0.46250077  0.16256964  0.57937596     0.27700
C315        C  0.47581610  0.15733083  0.41213365     0.36300
C316        C  0.47045073  0.12990409  0.46002031     0.36300
C317        C  0.47726801  0.23570492  0.53048340     0.36300
C318        C  0.47355847  0.20786150  0.57873112     0.36300
C319        C  0.47012510  0.22595661  0.38755903    -0.21200
C320        C  0.47114430  0.24485333  0.41569599    -0.21200
C321        C  0.45047763  0.12343100  0.56964068    -0.21200
C322        C  0.45193097  0.14202952  0.59827325    -0.21200
C323        C  0.48262265  0.13444408  0.39605801    -0.22200
C324        C  0.47913731  0.11713134  0.42623453    -0.22200
C325        C  0.48210690  0.24761434  0.56733780    -0.22200
C326        C  0.48037101  0.22998858  0.59750270    -0.22200
C327        C  0.47584026  0.18004320  0.38998615    -0.17600
C328        C  0.47758416  0.24739947  0.49127515    -0.17600
C329        C  0.46871018  0.18512797  0.59963703    -0.17600
C330        C  0.46443822  0.11872033  0.49791016    -0.17600
H331        H  0.46792585  0.22857679  0.35498689     0.15300
H332        H  0.47043800  0.26432742  0.40779880     0.15300
H333        H  0.44360399  0.10483560  0.57518332     0.15300
H334        H  0.44652003  0.14022056  0.62984552     0.15300
H335        H  0.48985686  0.13056240  0.36592275     0.13600
H336        H  0.48317704  0.09746562  0.42375560     0.13600
H337        H  0.48643194  0.26698993  0.57261354     0.13600
H338        H  0.48380935  0.23336407  0.62961837     0.13600
H339        H  0.48111582  0.19622380  0.47139093     0.26900
H340        H  0.47825033  0.16755646  0.52030414     0.26900
N341        N  0.46172626  0.85073117  0.04582868    -0.35900
N342        N  0.46142850  0.85024026  0.95661355    -0.56400
N343        N  0.45818942  0.90435275  0.95702977    -0.35900
N344        N  0.45780639  0.90518569  0.04626221    -0.56400
C345        C  0.46959150  0.82714163  0.03868272     0.27700
C346        C  0.46675391  0.85562228  0.08567130     0.27700
C347        C  0.45389899  0.89981550  0.91671338     0.27700
C348        C  0.45318411  0.92879008  0.96373221     0.27700
C349        C  0.46407896  0.82550328  0.96285709     0.36300
C350        C  0.46066502  0.85365840  0.91566255     0.36300
C351        C  0.45940353  0.90155011  0.08719216     0.36300
C352        C  0.45771493  0.93013236  0.03997740     0.36300
C353        C  0.47962309  0.81716923  0.07425051    -0.21200
C354        C  0.47768858  0.83498976  0.10381008    -0.21200
C355        C  0.44596691  0.92158133  0.89797989    -0.21200
C356        C  0.44550964  0.93971177  0.92741117    -0.21200
C357        C  0.46434937  0.81311827  0.92573060    -0.22200
C358        C  0.46310006  0.83089703  0.89601483    -0.22200
C359        C  0.45988802  0.92430958  0.10706448    -0.22200
C360        C  0.45934645  0.94233081  0.07728277    -0.22200
C361        C  0.46831492  0.81406027  0.00117332    -0.17600
C362        C  0.46241023  0.87815607  0.10674085    -0.17600
C363        C  0.45604231  0.94200720  0.00115959    -0.17600
C364        C  0.45721658  0.87685960  0.89572958    -0.17600
H365        H  0.48813248  0.79909572  0.07844139     0.15300
H366        H  0.48442421  0.83319336  0.13492780     0.15300
H367        H  0.44108711  0.92433649  0.86623740     0.15300
H368        H  0.44011720  0.95885136  0.92241406     0.15300
H369        H  0.46588507  0.79335712  0.92009743     0.13600
H370        H  0.46415833  0.82703742  0.86369112     0.13600
H371        H  0.46148165  0.92774447  0.13954984     0.13600
H372        H  0.46036730  0.96212239  0.08291732     0.13600
H373        H  0.45165601  0.86199938  0.02589570     0.26900
H374        H  0.46647150  0.89226469  0.97775257     0.26900
N375        N  0.46061751  0.84830496  0.45896393    -0.35900
N376        N  0.45879448  0.84943572  0.54738940    -0.56400
N377        N  0.45829156  0.90446591  0.54364342    -0.35900
N378        N  0.45637763  0.90290478  0.45515548    -0.56400
C379        C  0.45859085  0.82363403  0.46745073     0.27700
C380        C  0.45580993  0.85133696  0.41852214     0.27700
C381        C  0.45349160  0.90056700  0.58378975     0.27700
C382        C  0.45334775  0.92876376  0.53556948     0.27700
C383        C  0.46622322  0.82554521  0.54231938     0.29900
C384        C  0.46306997  0.85507482  0.58709960     0.36300
C385        C  0.45929688  0.89800702  0.41476239     0.36300
C386        C  0.45890056  0.92792370  0.45994322     0.36300
C387        C  0.45214338  0.81091444  0.43221215    -0.21200
C388        C  0.45079623  0.82813512  0.40141018    -0.21200
C389        C  0.44552442  0.92264827  0.60129162    -0.21200
C390        C  0.44539114  0.94031125  0.57104703    -0.21200
C391        C  0.47524212  0.81609291  0.57894819    -0.22200
C392        C  0.47297944  0.83466621  0.60734077    -0.22200
C393        C  0.46259498  0.92023908  0.39381896    -0.22200
C394        C  0.46309814  0.93889022  0.42229231    -0.22200
C395        C  0.46442151  0.81203524  0.50527334    -0.17600
C396        C  0.45834965  0.87396548  0.39616899    -0.17600
C397        C  0.45667160  0.94108844  0.49755169    -0.17600
C398        C  0.45789402  0.87821221  0.60578186    -0.17600
H399        H  0.44948584  0.79108534  0.42850089     0.15300
H400        H  0.44742910  0.82331418  0.36989697     0.15300
H401        H  0.44106914  0.92612684  0.63291434     0.15300
H402        H  0.44038001  0.95959846  0.57521020     0.15300
H403        H  0.48314642  0.79791922  0.58473554     0.13600
H404        H  0.47867950  0.83345898  0.63906855     0.13600
H405        H  0.46434545  0.92318988  0.36131182     0.13600
H406        H  0.46632829  0.95828851  0.41542099     0.13600
H407        H  0.46816603  0.86164899  0.47814055     0.26900
H408        H  0.46713377  0.89209322  0.52438925     0.26900
O409        O  0.41406754  0.47335325  0.96449175    -0.73700
O410        O  0.34258136  0.47357423  0.97309934    -0.73700
O411        O  0.37801359  0.50919423  0.96649477    -0.73800
O412        O  0.37848625  0.43792904  0.97052861    -0.73800
O413        O  0.38209290  0.43925318  0.03850703    -0.73800
O414        O  0.38099873  0.51073501  0.03452552    -0.73700
O415        O  0.34579473  0.47523882  0.04108997    -0.73700
O416        O  0.41691229  0.47490008  0.03253644    -0.73800
Ni417      Ni  0.37815508  0.47346943  0.96623075     1.25400
Ni418      Ni  0.38152614  0.47506308  0.03908447     1.25400
C419        C  0.42720281  0.47357573  0.99737530     0.88500
C420        C  0.33248799  0.47503203  0.00847293     0.88400
C421        C  0.37900759  0.52168809  0.99981974     0.88400
C422        C  0.38114665  0.42691452  0.00496887     0.88600
O423        O  0.37870653  0.50590132  0.53223342    -0.73700
O424        O  0.38130972  0.43449995  0.52779767    -0.73700
O425        O  0.41548222  0.47104214  0.52845079    -0.73800
O426        O  0.34422403  0.46880741  0.53235376    -0.73800
O427        O  0.34232551  0.47191783  0.46436971    -0.73800
O428        O  0.41390048  0.47117562  0.46025515    -0.73700
O429        O  0.37766107  0.43590631  0.45979095    -0.73700
O430        O  0.37831030  0.50709696  0.46403403    -0.73800
Ni431      Ni  0.37993702  0.47003895  0.53265179     1.25400
Ni432      Ni  0.37798940  0.47157734  0.45966848     1.25400
C433        C  0.37822827  0.51823506  0.49863991     0.88500
C434        C  0.38009504  0.42357683  0.49302956     0.88400
C435        C  0.42643561  0.47085516  0.49379223     0.88400
C436        C  0.33155715  0.47039942  0.49916656     0.88600
O437        O  0.41211199  0.59773409  0.03090602    -0.73700
O438        O  0.34057623  0.59558714  0.02788020    -0.73700
O439        O  0.37747695  0.56144235  0.03161615    -0.73800
O440        O  0.37558691  0.63296518  0.02738460    -0.73800
O441        O  0.37847279  0.63167899  0.95941092    -0.73800
O442        O  0.37696147  0.56007535  0.96342691    -0.73700
O443        O  0.34145641  0.59618997  0.95971667    -0.73700
O444        O  0.41295833  0.59514874  0.96281750    -0.73800
Ni445      Ni  0.37633245  0.59712163  0.03186949     1.25400
Ni446      Ni  0.37737481  0.59580056  0.95890410     1.25400
C447        C  0.42424160  0.59593727  0.99737228     0.88500
C448        C  0.32926086  0.59495726  0.99327806     0.88400
C449        C  0.37774613  0.54903126  0.99819200     0.88400
C450        C  0.37774101  0.64408959  0.99286719     0.88600
O451        O  0.41269215  0.59280144  0.53524748    -0.73700
O452        O  0.34127692  0.59355108  0.53102499    -0.73700
O453        O  0.37679639  0.55735063  0.53332855    -0.73800
O454        O  0.37718947  0.62896732  0.53285750    -0.73800
O455        O  0.37904842  0.62876923  0.46472363    -0.73800
O456        O  0.37827105  0.55738094  0.46516130    -0.73700
O457        O  0.34257122  0.59301472  0.46286856    -0.73700
O458        O  0.41430118  0.59272218  0.46709430    -0.73800
Ni459      Ni  0.37693556  0.59318705  0.53552219     1.25400
Ni460      Ni  0.37853788  0.59300940  0.46252723     1.25400
C461        C  0.42524906  0.59249433  0.50201947     0.88500
C462        C  0.33015110  0.59317752  0.49628865     0.88400
C463        C  0.37769496  0.54562159  0.49922450     0.88400
C464        C  0.37838688  0.64061205  0.49870991     0.88600
O465        O  0.50168575  0.50802460  0.96214897    -0.73700
O466        O  0.50089323  0.43647214  0.95879165    -0.73700
O467        O  0.46577932  0.47272889  0.96102756    -0.73800
O468        O  0.53775900  0.47242213  0.96010985    -0.73800
O469        O  0.53795674  0.47266946  0.02829676    -0.73800
O470        O  0.46677388  0.47065314  0.02915648    -0.73700
O471        O  0.50303702  0.43539137  0.02687913    -0.73700
O472        O  0.50135257  0.50688320  0.03035476    -0.73800
Ni473      Ni  0.50163512  0.47234867  0.95800884     1.25400
Ni474      Ni  0.50237921  0.47121389  0.03100920     1.25400
C475        C  0.50095639  0.51916016  0.99679931     0.88500
C476        C  0.50118644  0.42415313  0.99238916     0.88400
C477        C  0.45454306  0.47220807  0.99553116     0.88400
C478        C  0.54960254  0.47371923  0.99429557     0.88600
O479        O  0.50065837  0.50776919  0.46328016    -0.73700
O480        O  0.50038039  0.43644452  0.45220881    -0.73700
O481        O  0.46504069  0.47210613  0.45844092    -0.73800
O482        O  0.53658133  0.47299999  0.45645213    -0.73800
O483        O  0.53766494  0.46923114  0.52435998    -0.73800
O484        O  0.46611953  0.46788161  0.52629986    -0.73700
O485        O  0.50241906  0.43271135  0.52008390    -0.73700
O486        O  0.50134864  0.50381063  0.53120650    -0.73800
Ni487      Ni  0.50070994  0.47236305  0.45514354     1.25400
Ni488      Ni  0.50194958  0.46818158  0.52786542     1.25400
C489        C  0.50087929  0.51745543  0.49911833     0.88500
C490        C  0.50086012  0.42286857  0.48449968     0.88400
C491        C  0.45383259  0.47022470  0.49275779     0.88400
C492        C  0.54885227  0.47219334  0.49016991     0.88600
O493        O  0.46362286  0.59509502  0.96472675    -0.73700
O494        O  0.53480895  0.59320487  0.96728691    -0.73700
O495        O  0.49882526  0.55863584  0.96443895    -0.73800
O496        O  0.49998567  0.62985856  0.96719910    -0.73800
O497        O  0.49744029  0.62896955  0.03531944    -0.73800
O498        O  0.49937303  0.55768208  0.03266818    -0.73700
O499        O  0.53425054  0.59407298  0.03553594    -0.73700
O500        O  0.46284597  0.59302213  0.03287831    -0.73800
Ni501      Ni  0.49932557  0.59426438  0.96348771     1.25400
Ni502      Ni  0.49849021  0.59337865  0.03657942     1.25400
C503        C  0.45153406  0.59462018  0.99840353     0.88500
C504        C  0.54617601  0.59301470  0.00177667     0.88400
C505        C  0.49961852  0.54645524  0.99806190     0.88400
C506        C  0.49802119  0.64103324  0.00159138     0.88600
O507        O  0.49909730  0.55452423  0.53902048    -0.73700
O508        O  0.49768423  0.62591292  0.54857519    -0.73700
O509        O  0.46302650  0.58996946  0.53966396    -0.73800
O510        O  0.53427044  0.59018711  0.54880934    -0.73800
O511        O  0.53727084  0.59382094  0.48105912    -0.73800
O512        O  0.46574673  0.59351635  0.47185941    -0.73700
O513        O  0.50120113  0.62906844  0.48081419    -0.73700
O514        O  0.50186120  0.55816125  0.47122075    -0.73800
Ni515      Ni  0.49848071  0.59004551  0.54646364     1.25400
Ni516      Ni  0.50166328  0.59375435  0.47385512     1.25400
C517        C  0.50060098  0.54466946  0.50339260     0.88500
C518        C  0.49863207  0.63915485  0.51595393     0.88400
C519        C  0.45264800  0.59192089  0.50447124     0.88400
C520        C  0.54749919  0.59174896  0.51642404     0.88600
N521        N  0.12010964  0.48463108  0.97207793    -0.35900
N522        N  0.11888411  0.48762546  0.06076942    -0.56400
N523        N  0.06462520  0.47892766  0.05689026    -0.35900
N524        N  0.06626613  0.48031656  0.96815776    -0.56400
C525        C  0.14329080  0.49304143  0.98090676     0.27700
C526        C  0.11575262  0.48942581  0.93203119     0.27700
C527        C  0.06790486  0.48555133  0.09650518     0.27700
C528        C  0.04017106  0.48208390  0.04756483     0.27700
C529        C  0.14352046  0.48343139  0.05479090     0.36300
C530        C  0.11395801  0.48076079  0.09974698     0.36300
C531        C  0.07222082  0.47440684  0.92925959     0.36300
C532        C  0.04279502  0.47194996  0.97392874     0.36300
C533        C  0.15355702  0.50366390  0.94625536    -0.21200
C534        C  0.13627886  0.50119313  0.91537703    -0.21200
C535        C  0.04523364  0.49311847  0.11246331    -0.21200
C536        C  0.02776010  0.49087904  0.08165038    -0.21200
C537        C  0.15419174  0.47376592  0.09000758    -0.22200
C538        C  0.13551878  0.47214102  0.11846186    -0.22200
C539        C  0.05259513  0.46196387  0.91054041    -0.22200
C540        C  0.03389597  0.46054544  0.93877419    -0.22200
C541        C  0.15631693  0.48856361  0.01793095    -0.17600
C542        C  0.09445687  0.48174688  0.90975495    -0.17600
C543        C  0.02877319  0.47601273  0.00963493    -0.17600
C544        C  0.09047300  0.48311876  0.11905249    -0.17600
H545        H  0.17184075  0.51195091  0.94324499     0.15300
H546        H  0.13877308  0.50713658  0.88407746     0.15300
H547        H  0.04156502  0.49972246  0.14308623     0.15300
H548        H  0.00817957  0.49534852  0.08413713     0.15300
H549        H  0.17325514  0.46787697  0.09461588     0.13600
H550        H  0.13753217  0.46489615  0.14917130     0.13600
H551        H  0.05177809  0.45458021  0.87978743     0.13600
H552        H  0.01586727  0.45194808  0.93401232     0.13600
H553        H  0.10932907  0.47327819  0.99074510     0.26900
H554        H  0.07782611  0.47019501  0.03869299     0.26900
N555        N  0.11803941  0.48366722  0.46912253    -0.35900
N556        N  0.12031523  0.48054102  0.55799823    -0.56400
N557        N  0.06626252  0.48033301  0.56060879    -0.35900
N558        N  0.06412022  0.47978259  0.47172933    -0.56400
C559        C  0.14208273  0.47719060  0.47599290     0.27700
C560        C  0.11245884  0.47702283  0.43020173     0.27700
C561        C  0.07230514  0.47351806  0.59929893     0.27700
C562        C  0.04241859  0.47310316  0.55392116     0.27700
C563        C  0.14393827  0.48745760  0.54946735     0.36300
C564        C  0.11662226  0.48595766  0.59786206     0.36300
C565        C  0.06702341  0.48454164  0.43137621     0.36300
C566        C  0.03954169  0.48232876  0.47964745     0.36300
C567        C  0.15165404  0.46590944  0.44132307    -0.21200
C568        C  0.13302315  0.46596904  0.41236510    -0.21200
C569        C  0.05218420  0.46150540  0.61706223    -0.21200
C570        C  0.03326717  0.46144563  0.58856011    -0.21200
C571        C  0.15519016  0.49764356  0.58381576    -0.22200
C572        C  0.13783719  0.49677911  0.61448587    -0.22200
C573        C  0.04425027  0.49025600  0.41372537    -0.22200
C574        C  0.02684236  0.48845227  0.44404910    -0.22200
C575        C  0.15584337  0.48265270  0.51194635    -0.17600
C576        C  0.08961031  0.48161139  0.40987782    -0.17600
C577        C  0.02836724  0.47768413  0.51801791    -0.17600
C578        C  0.09489220  0.47950030  0.61964254    -0.17600
H579        H  0.17010340  0.45827396  0.43719482     0.15300
H580        H  0.13440160  0.45844335  0.38176762     0.15300
H581        H  0.05113762  0.45364896  0.64747235     0.15300
H582        H  0.01489679  0.45355023  0.59278826     0.15300
H583        H  0.17390814  0.50499114  0.58651139     0.13600
H584        H  0.14058243  0.50349210  0.64536421     0.13600
H585        H  0.04032689  0.49490517  0.38218081     0.13600
H586        H  0.00705062  0.49076729  0.43966248     0.13600
H587        H  0.10699352  0.49447751  0.48826872     0.26900
H588        H  0.07676623  0.49177995  0.54161754     0.26900
N589        N  0.76263829  0.49287882  0.05200283    -0.35900
N590        N  0.81645184  0.48505249  0.04894904    -0.56400
N591        N  0.81561508  0.48906225  0.96001592    -0.35900
N592        N  0.76183374  0.49370992  0.96244370    -0.56400
C593        C  0.76723242  0.48595340  0.09123121     0.27700
C594        C  0.73786460  0.48997136  0.04477858     0.27700
C595        C  0.83846597  0.47910746  0.96647264     0.27700
C596        C  0.80944982  0.48463931  0.92043125     0.27700
C597        C  0.81370463  0.48855735  0.08969950     0.36300
C598        C  0.84125392  0.48584685  0.04147579     0.36300
C599        C  0.73830949  0.50104943  0.97091207     0.36300
C600        C  0.76589934  0.49959193  0.92274168     0.36300
C601        C  0.74489979  0.47952093  0.10961201    -0.21200
C602        C  0.72654769  0.48154059  0.08021750    -0.21200
C603        C  0.84684761  0.46820843  0.93067207    -0.21200
C604        C  0.82855286  0.47167806  0.90166115    -0.21200
C605        C  0.83694819  0.49147798  0.10791354    -0.22200
C606        C  0.85419323  0.49014496  0.07751690    -0.22200
C607        C  0.72764514  0.51203863  0.93675435    -0.22200
C608        C  0.74500880  0.51097334  0.90629243    -0.22200
C609        C  0.79087105  0.48636251  0.11112912    -0.17600
C610        C  0.72532833  0.49533051  0.00731903    -0.17600
C611        C  0.78747394  0.49295736  0.90055914    -0.17600
C612        C  0.85239835  0.48057166  0.00326062    -0.17600
H613        H  0.74188844  0.47379005  0.14086758     0.15300
H614        H  0.70712377  0.47709350  0.08480502     0.15300
H615        H  0.86428947  0.45858100  0.92593355     0.15300
H616        H  0.82921215  0.46515596  0.87038831     0.15300
H617        H  0.84161392  0.49353240  0.13985274     0.13600
H618        H  0.87407584  0.49154626  0.08221194     0.13600
H619        H  0.70903899  0.51954966  0.93377267     0.13600
H620        H  0.74212840  0.51723681  0.87533009     0.13600
H621        H  0.77538129  0.50108934  0.03232026     0.26900
H622        H  0.80601831  0.50057427  0.98010785     0.26900
N623        N  0.76306041  0.48728570  0.45718721    -0.35900
N624        N  0.76025976  0.49393610  0.54587851    -0.56400
N625        N  0.81424634  0.49260266  0.55229537    -0.35900
N626        N  0.81686539  0.48284751  0.46431972    -0.56400
C627        C  0.73830850  0.48390105  0.46325842     0.27700
C628        C  0.76855493  0.47821670  0.41956025     0.27700
C629        C  0.80746396  0.48936060  0.59184501     0.27700
C630        C  0.83764085  0.48343743  0.54860124     0.27700
C631        C  0.73644397  0.49917520  0.53514129     0.36300
C632        C  0.76313052  0.50145435  0.58520319     0.36300
C633        C  0.81470814  0.48327240  0.42301421     0.36300
C634        C  0.84145275  0.48536434  0.47298796     0.36300
C635        C  0.72797887  0.47262915  0.42901192    -0.21200
C636        C  0.74683153  0.46954532  0.40125989    -0.21200
C637        C  0.82673586  0.47799423  0.61317764    -0.21200
C638        C  0.84577018  0.47444997  0.58605428    -0.21200
C639        C  0.72439005  0.51050865  0.56751613    -0.22200
C640        C  0.74118902  0.51187589  0.59914001    -0.22200
C641        C  0.83807063  0.48583660  0.40561380    -0.22200
C642        C  0.85482293  0.48752385  0.43702491    -0.22200
C643        C  0.72470592  0.49155813  0.49821048    -0.17600
C644        C  0.79234675  0.47909205  0.40071483    -0.17600
C645        C  0.85211364  0.48324456  0.51259989    -0.17600
C646        C  0.78460875  0.49689518  0.60943843    -0.17600
H647        H  0.70881919  0.46710847  0.42411502     0.15300
H648        H  0.74433333  0.46174821  0.37114021     0.15300
H649        H  0.82699472  0.47222833  0.64486088     0.15300
H650        H  0.86338971  0.46561575  0.59301955     0.15300
H651        H  0.70527402  0.51669818  0.56863385     0.13600
H652        H  0.73734564  0.51929530  0.62909046     0.13600
H653        H  0.84301936  0.48563719  0.37364409     0.13600
H654        H  0.87470181  0.48931860  0.43310568     0.13600
H655        H  0.77496922  0.49753728  0.47587632     0.26900
H656        H  0.80445264  0.50252958  0.53009176     0.26900
C657        C  0.77429117  0.49055336  0.79218768     0.21100
C658        C  0.76053159  0.48517956  0.75651572    -0.38800
C659        C  0.77180761  0.49193112  0.71941810     0.20000
C660        C  0.79496595  0.50316724  0.71810342     0.22700
C661        C  0.80876003  0.50845061  0.75368718    -0.39300
C662        C  0.79749789  0.50170332  0.79069844     0.21500
N663        N  0.76781925  0.48584245  0.83113675    -0.32600
C664        C  0.78695667  0.49421948  0.85480266    -0.10100
C665        C  0.80586792  0.50409369  0.83041943    -0.29000
N666        N  0.80180751  0.50733110  0.67926433    -0.45500
C667        C  0.78311808  0.49841029  0.65519409    -0.04800
C668        C  0.76399254  0.48868038  0.67941037    -0.22200
H669        H  0.74245478  0.47626095  0.75756090     0.19600
H670        H  0.82693545  0.51717342  0.75261409     0.18400
H671        H  0.82349475  0.51177864  0.84032576     0.14700
H672        H  0.74710086  0.47954545  0.66915146     0.14600
H673        H  0.75149435  0.47714327  0.84095096     0.32700
H674        H  0.81854700  0.51527658  0.66979464     0.35500
C675        C  0.80185458  0.48828098  0.29318944     0.21100
C676        C  0.80829949  0.50212154  0.25860941    -0.38800
C677        C  0.80111641  0.49190382  0.22106521     0.20000
C678        C  0.78916318  0.46917328  0.21780867     0.22700
C679        C  0.78333277  0.45484713  0.25260089    -0.39300
C680        C  0.79000629  0.46545403  0.29053937     0.21500
N681        N  0.80443950  0.49539082  0.33221901    -0.32600
C682        C  0.79414831  0.47716268  0.35522332    -0.10100
C683        C  0.78545242  0.45775862  0.33022759    -0.29000
N684        N  0.78378185  0.46413923  0.17834430    -0.45500
C685        C  0.79208258  0.48405454  0.15661255    -0.04800
C686        C  0.80304309  0.50160918  0.18242974    -0.22200
H687        H  0.81714744  0.52019957  0.26089110     0.19600
H688        H  0.77356181  0.43725296  0.25038718     0.18400
H689        H  0.77651099  0.44063885  0.33963850     0.14700
H690        H  0.81132512  0.51924330  0.17396378     0.14600
H691        H  0.81202930  0.51217593  0.34258347     0.32700
H692        H  0.77519927  0.44810581  0.16689787     0.35500
C693        C  0.96246529  0.46768077  0.50734077     0.21100
C694        C  0.94058430  0.45829543  0.48946054    -0.38800
C695        C  0.91823449  0.46747918  0.50542984     0.20000
C696        C  0.91766974  0.48475266  0.53676406     0.22700
C697        C  0.93958398  0.49393000  0.55509924    -0.39300
C698        C  0.96199524  0.48473008  0.53907409     0.21500
N699        N  0.98599444  0.46275786  0.49619419    -0.32600
C700        C  0.00071310  0.47682909  0.52083107    -0.10100
C701        C  0.98641558  0.49067651  0.54822657    -0.29000
N702        N  0.89413954  0.49198532  0.54402497    -0.45500
C703        C  0.87958105  0.47934931  0.51696641    -0.04800
C704        C  0.89401818  0.46342593  0.49307046    -0.22200
H705        H  0.94094715  0.44534252  0.46412297     0.19600
H706        H  0.93922612  0.50786024  0.57900140     0.18400
H707        H  0.99302819  0.50385921  0.57085926     0.14700
H708        H  0.88774260  0.45118561  0.46882068     0.14600
H709        H  0.99170266  0.45071417  0.47299798     0.32700
H710        H  0.88844731  0.50547331  0.56494090     0.35500
C711        C  0.10675584  0.47583417  0.80213008     0.21100
C712        C  0.11973950  0.46875989  0.76676132    -0.38800
C713        C  0.10757171  0.47368540  0.72945504     0.20000
C714        C  0.08425051  0.48455176  0.72773425     0.22700
C715        C  0.07109456  0.49096492  0.76302155    -0.39300
C716        C  0.08344088  0.48667266  0.80007178     0.21500
N717        N  0.11394083  0.47296018  0.84131390    -0.32600
C718        C  0.09504518  0.48216967  0.86423305    -0.10100
C719        C  0.07583644  0.49108043  0.83940359    -0.29000
N720        N  0.07689154  0.48788362  0.68887276    -0.45500
C721        C  0.09554814  0.47897703  0.66526605    -0.04800
C722        C  0.11494597  0.46968538  0.68963973    -0.22200
H723        H  0.13796801  0.46020973  0.76816972     0.19600
H724        H  0.05245488  0.49850748  0.76181657     0.18400
H725        H  0.05836686  0.49917620  0.84897514     0.14700
H726        H  0.13216855  0.46127661  0.67958878     0.14600
H727        H  0.13035577  0.46465685  0.85180616     0.32700
H728        H  0.06031797  0.49617362  0.67906968     0.35500
C729        C  0.09947354  0.48993292  0.22783391     0.21100
C730        C  0.11131169  0.49796015  0.26387967    -0.38800
C731        C  0.10016373  0.49048020  0.30054283     0.20000
C732        C  0.07928685  0.47538808  0.30133977     0.22700
C733        C  0.06769400  0.46691205  0.26528846    -0.39300
C734        C  0.07855783  0.47488938  0.22854428     0.21500
N735        N  0.10621827  0.49489484  0.18915546    -0.32600
C736        C  0.08955804  0.48286128  0.16477404    -0.10100
C737        C  0.07209154  0.47003275  0.18843645    -0.29000
N738        N  0.07281097  0.47021717  0.34009239    -0.45500
C739        C  0.08948568  0.48241275  0.36423820    -0.04800
C740        C  0.10686405  0.49521722  0.34051752    -0.22200
H741        H  0.12823895  0.50883113  0.26351717     0.19600
H742        H  0.05142243  0.45499461  0.26581029     0.18400
H743        H  0.05684349  0.45850839  0.17771973     0.14700
H744        H  0.12245822  0.50626974  0.35122053     0.14600
H745        H  0.12123038  0.50589321  0.17994790     0.32700
H746        H  0.05827574  0.45862956  0.34945141     0.35500
C747        C  0.91829754  0.48050923  0.98351790     0.21100
C748        C  0.94046222  0.48875367  0.96536886    -0.38800
C749        C  0.96258301  0.48076835  0.98425626     0.20000
C750        C  0.96268057  0.46565374  0.01852973     0.22700
C751        C  0.94048804  0.45695565  0.03614589    -0.39300
C752        C  0.91833247  0.46499094  0.01728231     0.21500
N753        N  0.89494732  0.48734016  0.97366683    -0.32600
C754        C  0.87986469  0.47614595  0.00131695    -0.10100
C755        C  0.89383512  0.46158314  0.02848885    -0.29000
N756        N  0.98611669  0.46195778  0.03208881    -0.45500
C757        C  0.00106532  0.47480640  0.00622248    -0.04800
C758        C  0.98699579  0.48663307  0.97585170    -0.22200
H759        H  0.94047986  0.50130609  0.93947734     0.19600
H760        H  0.94045267  0.44549152  0.06336353     0.18400
H761        H  0.88706638  0.45082221  0.05412302     0.14700
H762        H  0.99374822  0.49854677  0.95160536     0.14600
H763        H  0.88967641  0.49982023  0.95071338     0.32700
H764        H  0.99161042  0.45143220  0.05742343     0.35500
C765        C  0.61430814  0.47582937  0.51113120     0.21100
C766        C  0.63626798  0.47228181  0.53379863    -0.38800
C767        C  0.65827851  0.48044703  0.51519273     0.20000
C768        C  0.65847659  0.49173826  0.47720304     0.22700
C769        C  0.63645723  0.49521884  0.45432905    -0.39300
C770        C  0.61439343  0.48658650  0.47266434     0.21500
N771        N  0.59109470  0.46926793  0.52198231    -0.32600
C772        C  0.57618717  0.47544963  0.49000744    -0.10100
C773        C  0.59003775  0.48636704  0.45861431    -0.29000
N774        N  0.68194501  0.49757496  0.46632477    -0.45500
C775        C  0.69684125  0.48972392  0.49750616    -0.04800
C776        C  0.68260009  0.47883044  0.52836621    -0.22200
H777        H  0.63625636  0.46348119  0.56357117     0.19600
H778        H  0.63654223  0.50367679  0.42428950     0.18400
H779        H  0.58316303  0.49347914  0.42972334     0.14700
H780        H  0.68923614  0.47047432  0.55649440     0.14600
H781        H  0.58572737  0.46093581  0.54942663     0.32700
H782        H  0.68744910  0.50608476  0.43913107     0.35500
C783        C  0.65823127  0.49529674  0.01808307     0.21100
C784        C  0.63517838  0.49941731  0.03705542    -0.38800
C785        C  0.61416421  0.48988614  0.01645112     0.20000
C786        C  0.61580856  0.47775509  0.97921770     0.22700
C787        C  0.63889935  0.47346171  0.96042046    -0.39300
C788        C  0.65996287  0.48247615  0.98153754     0.21500
N789        N  0.68100501  0.50191886  0.03191644    -0.32600
C790        C  0.69751274  0.49285664  0.00434491    -0.10100
C791        C  0.68492653  0.48060327  0.97255247    -0.29000
N792        N  0.59305131  0.47059390  0.96591892    -0.45500
C793        C  0.57688497  0.47772765  0.99543210    -0.04800
C794        C  0.58939999  0.48982398  0.02731520    -0.22200
H795        H  0.63373401  0.50897485  0.06607842     0.19600
H796        H  0.64040555  0.46351604  0.93176019     0.18400
H797        H  0.69304469  0.47132419  0.94645339     0.14700
H798        H  0.58137383  0.49765710  0.05473488     0.14600
H799        H  0.68498868  0.51203100  0.05841940     0.32700
H800        H  0.58884187  0.46103942  0.93892888     0.35500
C801        C  0.26615496  0.47981233  0.48588723     0.21100
C802        C  0.24447942  0.48893416  0.46701252    -0.38800
C803        C  0.22230760  0.48535744  0.48872778     0.20000
C804        C  0.22170151  0.47331075  0.52609981     0.22700
C805        C  0.24343570  0.46450904  0.54530427    -0.39300
C806        C  0.26568560  0.46840509  0.52384590     0.21500
N807        N  0.28956589  0.48118252  0.47172540    -0.32600
C808        C  0.30419108  0.47101967  0.50119188    -0.10100
C809        C  0.28998464  0.46282509  0.53420793    -0.29000
N810        N  0.19816369  0.47126217  0.53950534    -0.45500
C811        C  0.18361789  0.48220638  0.51057263    -0.04800
C812        C  0.19815164  0.49151744  0.47869101    -0.22200
H813        H  0.24484473  0.49810565  0.43754966     0.19600
H814        H  0.24304978  0.45532383  0.57475588     0.18400
H815        H  0.29658583  0.45421821  0.56215597     0.14700
H816        H  0.19181240  0.50097927  0.45133468     0.14600
H817        H  0.29533256  0.48924265  0.44428135     0.32700
H818        H  0.19231436  0.46224934  0.56608911     0.35500
C819        C  0.22318286  0.49109945  0.03255735     0.21100
C820        C  0.24592985  0.49548746  0.05298629    -0.38800
C821        C  0.26746019  0.48720886  0.03266928     0.20000
C822        C  0.26638181  0.47608450  0.99450654     0.22700
C823        C  0.24373727  0.47166027  0.97427705    -0.39300
C824        C  0.22229625  0.47931443  0.99499460     0.21500
N825        N  0.19998402  0.49631246  0.04567588    -0.32600
C826        C  0.18420964  0.48739551  0.01644384    -0.10100
C827        C  0.19764298  0.47659115  0.98455029    -0.29000
N828        N  0.28928756  0.47018099  0.98132095    -0.45500
C829        C  0.30518081  0.47718773  0.01149616    -0.04800
C830        C  0.29227975  0.48784341  0.04414437    -0.22200
H831        H  0.24677795  0.50430303  0.08271965     0.19600
H832        H  0.24284508  0.46254773  0.94478481     0.18400
H833        H  0.19030910  0.46756548  0.95744457     0.14700
H834        H  0.30006289  0.49546282  0.07206952     0.14600
H835        H  0.19524146  0.50539363  0.07276920     0.32700
H836        H  0.29383700  0.46180175  0.95352581     0.35500
C837        C  0.47022597  0.74624469  0.52592356     0.21100
C838        C  0.46740246  0.72402975  0.54818169    -0.38800
C839        C  0.48037607  0.70330910  0.53305609     0.20000
C840        C  0.49452654  0.70453416  0.49785156     0.22700
C841        C  0.49753114  0.72676821  0.47584454    -0.39300
C842        C  0.48505606  0.74758872  0.49154063     0.21500
N843        N  0.46028822  0.76862689  0.53439457    -0.32600
C844        C  0.46932541  0.78457306  0.50581286    -0.10100
C845        C  0.48480548  0.77198382  0.47848127    -0.29000
N846        N  0.50371037  0.68202177  0.48839612    -0.45500
C847        C  0.49565862  0.66635247  0.51803313    -0.04800
C848        C  0.48121377  0.67897553  0.54668634    -0.22200
H849        H  0.45599031  0.72297320  0.57530958     0.19600
H850        H  0.50878412  0.72778444  0.44852741     0.18400
H851        H  0.49494838  0.77977419  0.45297330     0.14700
H852        H  0.47144314  0.67111911  0.57252924     0.14600
H853        H  0.44825388  0.77282297  0.55841315     0.32700
H854        H  0.51423097  0.67743253  0.46270003     0.35500
C855        C  0.48002998  0.70393937  0.01711512     0.21100
C856        C  0.46591313  0.72343168  0.03346964    -0.38800
C857        C  0.47104239  0.74709739  0.01768001     0.20000
C858        C  0.48902641  0.75106891  0.98820153     0.22700
C859        C  0.50271258  0.73148258  0.97108720    -0.39300
C860        C  0.49737461  0.70774094  0.98652215     0.21500
N861        N  0.47881291  0.67978101  0.02721324    -0.32600
C862        C  0.49512477  0.66808045  0.00235300    -0.10100
C863        C  0.50694867  0.68480006  0.97626894    -0.29000
N864        N  0.49076577  0.77535643  0.97909960    -0.45500
C865        C  0.47328566  0.78684442  0.00214562    -0.04800
C866        C  0.46071173  0.76981503  0.02679432    -0.22200
H867        H  0.45198907  0.72039663  0.05677122     0.19600
H868        H  0.51646574  0.73450736  0.94751155     0.18400
H869        H  0.52062991  0.68070072  0.95303890     0.14700
H870        H  0.44593584  0.77361810  0.04829953     0.14600
H871        H  0.46706271  0.67161671  0.04878072     0.32700
H872        H  0.50314033  0.78360074  0.95858273     0.35500
C873        C  0.46496690  0.88718708  0.78778004     0.21100
C874        C  0.47481229  0.89819895  0.75246334    -0.38800
C875        C  0.46600172  0.88855691  0.71523469     0.20000
C876        C  0.44894350  0.86924503  0.71339338     0.22700
C877        C  0.43907205  0.85826356  0.74865070    -0.39300
C878        C  0.44764061  0.86815620  0.78578996     0.21500
N879        N  0.47046413  0.89275470  0.82687295    -0.32600
C880        C  0.45639736  0.87726247  0.85004897    -0.10100
C881        C  0.44178030  0.86185433  0.82524808    -0.29000
N882        N  0.44379490  0.86326756  0.67444410    -0.45500
C883        C  0.45748117  0.87900587  0.65119859    -0.04800
C884        C  0.47170116  0.89497867  0.67559390    -0.22200
H885        H  0.48833343  0.91314405  0.75385981     0.19600
H886        H  0.42555858  0.84329881  0.74726815     0.18400
H887        H  0.42898746  0.84753663  0.83461278     0.14700
H888        H  0.48464341  0.90916307  0.66558611     0.14600
H889        H  0.48324588  0.90605484  0.83719783     0.32700
H890        H  0.43181712  0.84925775  0.66435544     0.35500
C891        C  0.47399690  0.88014962  0.21516457     0.21100
C892        C  0.48586077  0.88709729  0.25182350    -0.38800
C893        C  0.47474731  0.87829005  0.28784004     0.20000
C894        C  0.45329182  0.86402165  0.28735827     0.22700
C895        C  0.44216295  0.85603374  0.25074154    -0.39300
C896        C  0.45334046  0.86469539  0.21477503     0.21500
N897        N  0.47976062  0.88746609  0.17697639    -0.32600
C898        C  0.46256018  0.87661293  0.15220003    -0.10100
C899        C  0.44621529  0.86177171  0.17462430    -0.29000
N900        N  0.44466962  0.86067878  0.32545139    -0.45500
C901        C  0.46112095  0.87227389  0.35073582    -0.04800
C902        C  0.48044866  0.88300636  0.32821814    -0.22200
H903        H  0.50198197  0.89922144  0.25234569     0.19600
H904        H  0.42528352  0.84497620  0.25029225     0.18400
H905        H  0.43077313  0.85084040  0.16302018     0.14700
H906        H  0.49603038  0.89375957  0.33979357     0.14600
H907        H  0.49453067  0.89894597  0.16827006     0.32700
H908        H  0.42786691  0.85216678  0.33338087     0.35500
C909        C  0.50416558  0.35646421  0.49375924     0.21100
C910        C  0.51323909  0.33347914  0.50804297    -0.38800
C911        C  0.49914579  0.31238985  0.49713635     0.20000
C912        C  0.47739520  0.31411345  0.47452412     0.22700
C913        C  0.46849975  0.33705431  0.45968393    -0.39300
C914        C  0.48290253  0.35810512  0.46977713     0.21500
N915        N  0.51363030  0.37926411  0.50123615    -0.32600
C916        C  0.49866261  0.39553639  0.48109983    -0.10100
C917        C  0.47932531  0.38303830  0.46098227    -0.29000
N918        N  0.46693833  0.29149340  0.46971678    -0.45500
C919        C  0.48218644  0.27501875  0.48902111    -0.04800
C920        C  0.50269623  0.28749322  0.50601158    -0.22200
H921        H  0.52994061  0.33213432  0.52659443     0.19600
H922        H  0.45150186  0.33843088  0.44187215     0.18400
H923        H  0.46404401  0.39120645  0.44395456     0.14700
H924        H  0.51808002  0.27942378  0.52290941     0.14600
H925        H  0.52912515  0.38356170  0.51937716     0.32700
H926        H  0.45021182  0.28760973  0.45456398     0.35500
C927        C  0.46627618  0.00708484  0.51503748     0.21100
C928        C  0.47596121  0.02846460  0.53442212    -0.38800
C929        C  0.46862876  0.05146774  0.51761963     0.20000
C930        C  0.45305317  0.05296704  0.48391262     0.22700
C931        C  0.44321841  0.03164644  0.46480130    -0.39300
C932        C  0.45034903  0.00871420  0.48183077     0.21500
N933        N  0.47064299  0.98306747  0.52459495    -0.32600
C934        C  0.45723302  0.96914533  0.49752791    -0.10100
C935        C  0.44416327  0.98470955  0.47066364    -0.29000
N936        N  0.44943590  0.07683311  0.47304543    -0.45500
C937        C  0.46260119  0.09088223  0.50005130    -0.04800
C938        C  0.47486160  0.07561789  0.52840889    -0.22200
H939        H  0.48840629  0.02727614  0.56049165     0.19600
H940        H  0.43085870  0.03283298  0.43861693     0.18400
H941        H  0.43175258  0.97927092  0.44617127     0.14700
H942        H  0.48708935  0.08142430  0.55304900     0.14600
H943        H  0.48226645  0.97652521  0.54794039     0.32700
H944        H  0.43890542  0.08313402  0.44832811     0.35500
C945        C  0.47870574  0.31497703  0.97955563     0.21100
C946        C  0.47395510  0.33740137  0.95864188    -0.38800
C947        C  0.48501238  0.35891586  0.97537442     0.20000
C948        C  0.49915515  0.35822320  0.01085701     0.22700
C949        C  0.50397136  0.33578286  0.03164179    -0.39300
C950        C  0.49337302  0.31420795  0.01438870     0.21500
N951        N  0.47117882  0.29190851  0.96900308    -0.32600
C952        C  0.48129475  0.27608970  0.99695174    -0.10100
C953        C  0.49530548  0.28949631  0.02577260    -0.29000
N954        N  0.50706254  0.38123506  0.02107811    -0.45500
C955        C  0.49830421  0.39671449  0.99153905    -0.04800
C956        C  0.48451655  0.38343005  0.96240174    -0.22200
H957        H  0.46274443  0.33799859  0.93105226     0.19600
H958        H  0.51538366  0.33512910  0.05900206     0.18400
H959        H  0.50596308  0.28207992  0.05116651     0.14700
H960        H  0.47479504  0.39083952  0.93600756     0.14600
H961        H  0.46014840  0.28724795  0.94382312     0.32700
H962        H  0.51772005  0.38614556  0.04665721     0.35500
C963        C  0.46443248  0.19427645  0.70863139     0.21100
C964        C  0.45724270  0.20609731  0.74489323    -0.38800
C965        C  0.46593193  0.19516433  0.78116601     0.20000
C966        C  0.48046877  0.17394863  0.78155447     0.22700
C967        C  0.48783291  0.16217804  0.74517569    -0.39300
C968        C  0.47933262  0.17328873  0.70873738     0.21500
N969        N  0.45859626  0.20108544  0.67023273    -0.32600
C970        C  0.47013082  0.18458366  0.64535229    -0.10100
C971        C  0.48325438  0.16692953  0.66841320    -0.29000
N972        N  0.48602304  0.16724466  0.82023747    -0.45500
C973        C  0.47490482  0.18436961  0.84464873    -0.04800
C974        C  0.46237067  0.20207239  0.82112156    -0.22200
H975        H  0.44564570  0.22256447  0.74488532     0.19600
H976        H  0.49937205  0.14567260  0.74521591     0.18400
H977        H  0.49418987  0.15151447  0.65707986     0.14700
H978        H  0.45204720  0.21793484  0.83175053     0.14600
H979        H  0.44735020  0.21601809  0.66163616     0.32700
H980        H  0.49684176  0.15207996  0.82945295     0.35500
C981        C  0.48806480  0.18739982  0.28230808     0.21100
C982        C  0.49780683  0.19867418  0.24703774    -0.38800
C983        C  0.48816982  0.18995765  0.20965372     0.20000
C984        C  0.47041513  0.17129277  0.20767342     0.22700
C985        C  0.46088872  0.15986284  0.24282472    -0.39300
C986        C  0.47026458  0.16880047  0.28010619     0.21500
N987        N  0.49302332  0.19327266  0.32151319    -0.32600
C988        C  0.47787127  0.17865270  0.34445264    -0.10100
C989        C  0.46362436  0.16299086  0.31950724    -0.29000
N990        N  0.46374094  0.16680834  0.16876896    -0.45500
C991        C  0.47743058  0.18257069  0.14551327    -0.04800
C992        C  0.49294517  0.19731598  0.17001436    -0.22200
H993        H  0.51143539  0.21351847  0.24861430     0.19600
H994        H  0.44657823  0.14566535  0.24129795     0.18400
H995        H  0.44962561  0.14973612  0.32889689     0.14700
H996        H  0.50601660  0.21140506  0.16008600     0.14600
H997        H  0.50562616  0.20670694  0.33196125     0.32700
H998        H  0.45050167  0.15391026  0.15866904     0.35500
C999        C  0.47310784  0.05213623  0.98082081     0.21100
C1000       C  0.48164578  0.02924158  0.96538290    -0.38800
C1001       C  0.47009299  0.00778738  0.98122809     0.20000
C1002       C  0.45131497  0.00902009  0.00993313     0.22700
C1003       C  0.44287810  0.03187636  0.02552791    -0.39300
C1004       C  0.45460457  0.05329235  0.01001091     0.21500
N1005       N  0.48128547  0.07517994  0.97130796    -0.32600
C1006       C  0.46803202  0.09117503  0.99487362    -0.10100
C1007       C  0.45130063  0.07808846  0.01943182    -0.29000
N1008       N  0.44358634  0.98602328  0.02040437    -0.45500
C1009       C  0.45776178  0.96986773  0.99871241    -0.04800
C1010       C  0.47442302  0.98286550  0.97375837    -0.22200
H1011       H  0.49639356  0.02818464  0.94301813     0.19600
H1012       H  0.42833290  0.03291347  0.04825738     0.18400
H1013       H  0.43861980  0.08568555  0.04155567     0.14700
H1014       H  0.48809236  0.97503706  0.95325100     0.14600
H1015       H  0.49529158  0.07975388  0.95055904     0.32700
H1016       H  0.42956943  0.98167225  0.04113440     0.35500
C1017       C  0.21916071  0.58937538  0.51173560     0.21100
C1018       C  0.24009923  0.59892551  0.53251506    -0.38800
C1019       C  0.26319269  0.59507667  0.51346304     0.20000
C1020       C  0.26521782  0.58301612  0.47622693     0.22700
C1021       C  0.24432466  0.57311025  0.45583042    -0.39300
C1022       C  0.22128950  0.57666035  0.47515734     0.21500
N1023       N  0.19515959  0.59069015  0.52325038    -0.32600
C1024       C  0.18180663  0.57844572  0.49407268    -0.10100
C1025       C  0.19761716  0.56932475  0.46369747    -0.29000
N1026       N  0.28920384  0.58167800  0.46461024    -0.45500
C1027       C  0.30264307  0.59249173  0.49504818    -0.04800
C1028       C  0.28705610  0.60107283  0.52606692    -0.22200
H1029       H  0.23854674  0.60847493  0.56153200     0.19600
H1030       H  0.24590028  0.56324192  0.42711011     0.18400
H1031       H  0.19245455  0.55874884  0.43677963     0.14700
H1032       H  0.29250393  0.61013831  0.55429593     0.14600
H1033       H  0.18828523  0.59968853  0.54914873     0.32700
H1034       H  0.29609657  0.57311337  0.43833182     0.35500
C1035       C  0.21869683  0.58448025  0.97273237     0.21100
C1036       C  0.23915482  0.59580151  0.95341273    -0.38800
C1037       C  0.26247344  0.59215202  0.97224284     0.20000
C1038       C  0.26511803  0.57854162  0.00792981     0.22700
C1039       C  0.24473395  0.56678946  0.02677995    -0.39300
C1040       C  0.22145697  0.57025461  0.00771147     0.21500
N1041       N  0.19452123  0.58608526  0.96191492    -0.32600
C1042       C  0.18164154  0.57259787  0.98992443    -0.10100
C1043       C  0.19795389  0.56230067  0.01884464    -0.29000
N1044       N  0.28905474  0.57847897  0.02042063    -0.45500
C1045       C  0.30188619  0.59178018  0.99218395    -0.04800
C1046       C  0.28594602  0.60047765  0.96146745    -0.22200
H1047       H  0.23703097  0.60685523  0.92594597     0.19600
H1048       H  0.24679578  0.55601055  0.05455535     0.18400
H1049       H  0.19314079  0.55108320  0.04513121     0.14700
H1050       H  0.29086254  0.61146994  0.93496529     0.14600
H1051       H  0.18718373  0.59645445  0.93767706     0.32700
H1052       H  0.29634449  0.56943474  0.04609809     0.35500
C1053       C  0.09821302  0.57671144  0.70762996     0.21100
C1054       C  0.10797993  0.58685485  0.74389278    -0.38800
C1055       C  0.09701898  0.57839246  0.78021525     0.20000
C1056       C  0.07772925  0.56129936  0.78042600     0.22700
C1057       C  0.06755658  0.55170601  0.74410397    -0.39300
C1058       C  0.07886165  0.55968776  0.70787858     0.21500
N1059       N  0.10522382  0.58178983  0.66910992    -0.32600
C1060       C  0.09025978  0.56780725  0.64462769    -0.10100
C1061       C  0.07373253  0.55360994  0.66785677    -0.29000
N1062       N  0.07135088  0.55540641  0.81893433    -0.45500
C1063       C  0.08673682  0.56881705  0.84357948    -0.04800
C1064       C  0.10265613  0.58375636  0.82034952    -0.22200
H1065       H  0.12316563  0.60013447  0.74386407     0.19600
H1066       H  0.05185746  0.53912662  0.74391542     0.18400
H1067       H  0.05950730  0.54096233  0.65678260     0.14700
H1068       H  0.11700266  0.59627232  0.83142142     0.14600
H1069       H  0.11890395  0.59444909  0.65999675     0.32700
H1070       H  0.05781960  0.54255798  0.82784326     0.35500
C1071       C  0.08155983  0.57809492  0.20672808     0.21100
C1072       C  0.06841825  0.58471944  0.24218184    -0.38800
C1073       C  0.07941149  0.57754420  0.27946537     0.20000
C1074       C  0.10195510  0.56515936  0.28123298     0.22700
C1075       C  0.11529974  0.55904767  0.24582191    -0.39300
C1076       C  0.10395477  0.56547525  0.20859633     0.21500
N1077       N  0.07459211  0.58173257  0.16761679    -0.32600
C1078       C  0.09231505  0.57069122  0.14430159    -0.10100
C1079       C  0.11106544  0.56058108  0.16897400    -0.29000
N1080       N  0.10825983  0.56004425  0.32017585    -0.45500
C1081       C  0.08961408  0.56918541  0.34366273    -0.04800
C1082       C  0.07136037  0.58044846  0.31920451    -0.22200
H1083       H  0.05069933  0.59427957  0.24080718     0.19600
H1084       H  0.13314352  0.54977506  0.24706424     0.18400
H1085       H  0.12736901  0.55041657  0.15917897     0.14700
H1086       H  0.05452087  0.58962551  0.32918857     0.14600
H1087       H  0.05858169  0.59094022  0.15749400     0.32700
H1088       H  0.12425831  0.55077683  0.33017663     0.35500
C1089       C  0.65684197  0.57421354  0.53542797     0.21100
C1090       C  0.63458906  0.57023352  0.55699643    -0.38800
C1091       C  0.61296424  0.58033734  0.53913889     0.20000
C1092       C  0.61353464  0.59322525  0.50248717     0.22700
C1093       C  0.63579641  0.59745511  0.48127648    -0.39300
C1094       C  0.65735973  0.58744715  0.49915782     0.21500
N1095       N  0.67973782  0.56584390  0.54506950    -0.32600
C1096       C  0.69494315  0.57367351  0.51458553    -0.10100
C1097       C  0.68162137  0.58748103  0.48566532    -0.29000
N1098       N  0.59040240  0.59946029  0.49042099    -0.45500
C1099       C  0.57489987  0.59066989  0.51963770    -0.04800
C1100       C  0.58829533  0.57882066  0.55079878    -0.22200
H1101       H  0.63407562  0.55961659  0.58511308     0.19600
H1102       H  0.63621118  0.60732644  0.45243526     0.18400
H1103       H  0.68871813  0.59612207  0.45818253     0.14700
H1104       H  0.58088496  0.56932042  0.57728026     0.14600
H1105       H  0.68465275  0.55528389  0.57065133     0.32700
H1106       H  0.58539970  0.60864220  0.46344907     0.35500
C1107       C  0.91522521  0.54683618  0.49138052     0.21100
C1108       C  0.93720855  0.53445577  0.48047000    -0.38800
C1109       C  0.95943750  0.54730168  0.48867684     0.20000
C1110       C  0.95974009  0.57105324  0.50485917     0.22700
C1111       C  0.93776519  0.58326231  0.51657671    -0.39300
C1112       C  0.91552190  0.57007110  0.50961672     0.21500
N1113       N  0.89173240  0.53872611  0.48631236    -0.32600
C1114       C  0.87690786  0.55655922  0.50229468    -0.10100
C1115       C  0.89107462  0.57644306  0.51722592    -0.29000
N1116       N  0.98322129  0.57968986  0.50752106    -0.45500
C1117       C  0.99814339  0.56095745  0.49435464    -0.04800
C1118       C  0.98382660  0.54044317  0.48261703    -0.22200
H1119       H  0.93702335  0.51616250  0.46660944     0.19600
H1120       H  0.93796749  0.60167969  0.52999433     0.18400
H1121       H  0.88432061  0.59335237  0.53129720     0.14700
H1122       H  0.99030839  0.52280395  0.47147939     0.14600
H1123       H  0.88614381  0.52216320  0.47274564     0.32700
H1124       H  0.98871953  0.59734737  0.51749049     0.35500
C1125       C  0.65504947  0.57599791  0.98610565     0.21100
C1126       C  0.63257850  0.56957334  0.96693244    -0.38800
C1127       C  0.61107979  0.57931308  0.98484183     0.20000
C1128       C  0.61176144  0.59382847  0.01984352     0.22700
C1129       C  0.63430940  0.60038880  0.03894936    -0.39300
C1130       C  0.65590668  0.59105451  0.02045704     0.21500
N1131       N  0.67800845  0.56889111  0.97515218    -0.32600
C1132       C  0.69369476  0.57957836  0.00256939    -0.10100
C1133       C  0.68059947  0.59372625  0.03114224    -0.29000
N1134       N  0.58861379  0.60045416  0.03095670    -0.45500
C1135       C  0.57331778  0.59050513  0.00217162    -0.04800
C1136       C  0.58659995  0.57719551  0.97303099    -0.22200
H1137       H  0.63189510  0.55795930  0.93990154     0.19600
H1138       H  0.63499642  0.61193376  0.06606148     0.18400
H1139       H  0.68814782  0.60403838  0.05681810     0.14700
H1140       H  0.57925923  0.56714027  0.94692198     0.14600
H1141       H  0.68267251  0.55701558  0.95110874     0.32700
H1142       H  0.58356595  0.61138778  0.05598622     0.35500
C1143       C  0.79996463  0.57517103  0.72100139     0.21100
C1144       C  0.81225974  0.58275218  0.75698058    -0.38800
C1145       C  0.80022524  0.57666171  0.79373376     0.20000
C1146       C  0.77775827  0.56402890  0.79440324     0.22700
C1147       C  0.76547766  0.55655662  0.75860492    -0.39300
C1148       C  0.77745660  0.56264069  0.72206807     0.21500
N1149       N  0.80737702  0.57853317  0.68211942    -0.32600
C1150       C  0.78952031  0.56776168  0.65840281    -0.10100
C1151       C  0.77053386  0.55788792  0.68244884    -0.29000
N1152       N  0.77019609  0.56029105  0.83289185    -0.45500
C1153       C  0.78791912  0.57051667  0.85732753    -0.04800
C1154       C  0.80691805  0.58110973  0.83388360    -0.22200
H1155       H  0.82987399  0.59257251  0.75641720     0.19600
H1156       H  0.74797351  0.54653027  0.75916604     0.18400
H1157       H  0.75384724  0.54843879  0.67234089     0.14700
H1158       H  0.82339810  0.59071382  0.84479282     0.14600
H1159       H  0.82333286  0.58793014  0.67241095     0.32700
H1160       H  0.75386947  0.55136576  0.84181665     0.35500
C1161       C  0.76989948  0.55200022  0.22070732     0.21100
C1162       C  0.76255986  0.53815993  0.25504456    -0.38800
C1163       C  0.76943033  0.54808711  0.29317029     0.20000
C1164       C  0.78197931  0.57047499  0.29687092     0.22700
C1165       C  0.78881492  0.58463703  0.26250560    -0.39300
C1166       C  0.78245479  0.57439815  0.22427878     0.21500
N1167       N  0.76767059  0.54534898  0.18124834    -0.32600
C1168       C  0.77887642  0.56356739  0.15921638    -0.10100
C1169       C  0.78803442  0.58222045  0.18511196    -0.29000
N1170       N  0.78734382  0.57523825  0.33634367    -0.45500
C1171       C  0.77852972  0.55556765  0.35803605    -0.04800
C1172       C  0.76709658  0.53832333  0.33197962    -0.22200
H1173       H  0.75330716  0.52031512  0.25220992     0.19600
H1174       H  0.79915743  0.60187292  0.26528522     0.18400
H1175       H  0.79804623  0.59889506  0.17644786     0.14700
H1176       H  0.75885066  0.52062315  0.34017309     0.14600
H1177       H  0.75990139  0.52881884  0.17016886     0.32700
H1178       H  0.79668896  0.59082951  0.34785160     0.35500
C1179       C  0.91312197  0.57273049  0.99971001     0.21100
C1180       C  0.93442187  0.58594245  0.98732781    -0.38800
C1181       C  0.95737258  0.57416722  0.99476832     0.20000
C1182       C  0.95895930  0.55087935  0.01258047     0.22700
C1183       C  0.93768983  0.53791558  0.02576988    -0.39300
C1184       C  0.91475180  0.54975243  0.01862796     0.21500
N1185       N  0.88916941  0.57973407  0.99575928    -0.32600
C1186       C  0.87543203  0.56126976  0.01282016    -0.10100
C1187       C  0.89074847  0.54224479  0.02732456    -0.29000
N1188       N  0.98286758  0.54352760  0.01539923    -0.45500
C1189       C  0.99679514  0.56234405  0.99972893    -0.04800
C1190       C  0.98142342  0.58194378  0.98708530    -0.22200
H1191       H  0.93321701  0.60405523  0.97295326     0.19600
H1192       H  0.93891036  0.51993634  0.04056440     0.18400
H1193       H  0.88509075  0.52510401  0.04158207     0.14700
H1194       H  0.98710122  0.59958950  0.97412244     0.14600
H1195       H  0.88249778  0.59604293  0.98220721     0.32700
H1196       H  0.98932856  0.52675398  0.02751751     0.35500
C1197       C  0.38284742  0.31303167  0.47987290     0.21100
C1198       C  0.36881169  0.33316287  0.46489390    -0.38800
C1199       C  0.37714766  0.35686731  0.47694045     0.20000
C1200       C  0.39750350  0.36004731  0.50264950     0.22700
C1201       C  0.41202993  0.34003146  0.51616394    -0.39300
C1202       C  0.40403093  0.31649539  0.50337857     0.21500
N1203       N  0.37849906  0.28863944  0.47421420    -0.32600
C1204       C  0.39758663  0.27648624  0.49299465    -0.10100
C1205       C  0.41395087  0.29344611  0.51115935    -0.29000
N1206       N  0.40071524  0.38413195  0.51196600    -0.45500
C1207       C  0.38268085  0.39649657  0.49133856    -0.04800
C1208       C  0.36775014  0.38025434  0.46862989    -0.22200
H1209       H  0.35251460  0.33055793  0.44572214     0.19600
H1210       H  0.42823083  0.34257727  0.53557860     0.18400
H1211       H  0.43116770  0.28964418  0.52727238     0.14700
H1212       H  0.35186179  0.38488539  0.44959931     0.14600
H1213       H  0.36335109  0.28075584  0.45872336     0.32700
H1214       H  0.41452039  0.39177472  0.53080895     0.35500
C1215       C  0.38455750  0.36173849  0.98452063     0.21100
C1216       C  0.38081158  0.33969875  0.96233628    -0.38800
C1217       C  0.39159848  0.31825176  0.97918595     0.20000
C1218       C  0.40558011  0.31875864  0.01482817     0.22700
C1219       C  0.40911168  0.34078508  0.03729537    -0.39300
C1220       C  0.39779290  0.36217794  0.02097071     0.21500
N1221       N  0.37644352  0.38462637  0.97472735    -0.32600
C1222       C  0.38416608  0.39971518  0.00549854    -0.10100
C1223       C  0.39745731  0.38639274  0.03503559    -0.29000
N1224       N  0.41368600  0.29579901  0.02442280    -0.45500
C1225       C  0.40431642  0.28042495  0.99516428    -0.04800
C1226       C  0.39042676  0.29388158  0.96646466    -0.22200
H1227       H  0.37008478  0.33924015  0.93422310     0.19600
H1228       H  0.41966536  0.34118499  0.06557999     0.18400
H1229       H  0.40646644  0.39363086  0.06224096     0.14700
H1230       H  0.38020340  0.28667410  0.94040654     0.14600
H1231       H  0.36648522  0.38973291  0.94851206     0.32700
H1232       H  0.42457161  0.29086003  0.04970277     0.35500
C1233       C  0.39203209  0.20013697  0.78052157     0.21100
C1234       C  0.38316545  0.21169875  0.74479418    -0.38800
C1235       C  0.38726946  0.19866005  0.70822873     0.20000
C1236       C  0.39941746  0.17599333  0.70730546     0.22700
C1237       C  0.40815502  0.16437333  0.74298688    -0.39300
C1238       C  0.40395209  0.17733344  0.77950439     0.21500
N1239       N  0.39001579  0.20836570  0.81921520    -0.32600
C1240       C  0.40077468  0.19065164  0.84303708    -0.10100
C1241       C  0.40969513  0.17106480  0.81917895    -0.29000
N1242       N  0.40205789  0.16801343  0.66866396    -0.45500
C1243       C  0.39188509  0.18584600  0.64446293    -0.04800
C1244       C  0.38178415  0.20492551  0.66834544    -0.22200
H1245       H  0.37388229  0.22956653  0.74538873     0.19600
H1246       H  0.41775623  0.14667448  0.74233047     0.18400
H1247       H  0.41860398  0.15417916  0.82961128     0.14700
H1248       H  0.37253411  0.22165934  0.65786667     0.14600
H1249       H  0.38103726  0.22455443  0.82886262     0.32700
H1250       H  0.41085959  0.15171096  0.65938137     0.35500
C1251       C  0.39368819  0.17691963  0.20615672     0.21100
C1252       C  0.38365256  0.16589353  0.24134116    -0.38800
C1253       C  0.39291513  0.17494964  0.27871407     0.20000
C1254       C  0.41077354  0.19350784  0.28079753     0.22700
C1255       C  0.42042339  0.20486159  0.24571587    -0.39300
C1256       C  0.41119432  0.19578080  0.20845125     0.21500
N1257       N  0.38846875  0.17133875  0.16694881    -0.32600
C1258       C  0.40293752  0.18666402  0.14411030    -0.10100
C1259       C  0.41704406  0.20235117  0.16911990    -0.29000
N1260       N  0.41688694  0.19845158  0.31978028    -0.45500
C1261       C  0.40259016  0.18321262  0.34295031    -0.04800
C1262       C  0.38728324  0.16834106  0.31829813    -0.22200
H1263       H  0.36983808  0.15122330  0.23974337     0.19600
H1264       H  0.43444974  0.21933887  0.24729535     0.18400
H1265       H  0.42980336  0.21670832  0.15988804     0.14700
H1266       H  0.37366691  0.15473962  0.32808910     0.14600
H1267       H  0.37566654  0.15811637  0.15643316     0.32700
H1268       H  0.42993054  0.21149021  0.32996633     0.35500
C1269       C  0.38748451  0.70561406  0.47959105     0.21100
C1270       C  0.39644960  0.72674444  0.45900823    -0.38800
C1271       C  0.38988073  0.74980154  0.47600303     0.20000
C1272       C  0.37527844  0.75166350  0.51056978     0.22700
C1273       C  0.36665635  0.73053525  0.53158271    -0.39300
C1274       C  0.37348852  0.70745456  0.51489018     0.21500
N1275       N  0.39078609  0.68162449  0.46920430    -0.32600
C1276       C  0.37917080  0.66805012  0.49843097    -0.10100
C1277       C  0.36828313  0.68349429  0.52762173    -0.29000
N1278       N  0.37121673  0.77566723  0.52001921    -0.45500
C1279       C  0.38362800  0.78932077  0.49166569    -0.04800
C1280       C  0.39550196  0.77371790  0.46369699    -0.22200
H1281       H  0.40764727  0.72533735  0.43168603     0.19600
H1282       H  0.35543240  0.73196518  0.55887644     0.18400
H1283       H  0.35765054  0.67793103  0.55413279     0.14700
H1284       H  0.40667434  0.77913651  0.43777771     0.14600
H1285       H  0.40057376  0.67486811  0.44402208     0.32700
H1286       H  0.36056996  0.78235528  0.54429196     0.35500
C1287       C  0.37327665  0.01125183  0.48353177     0.21100
C1288       C  0.36566645  0.03317423  0.46368053    -0.38800
C1289       C  0.37499018  0.05543404  0.48031290     0.20000
C1290       C  0.39043766  0.05574835  0.51432004     0.22700
C1291       C  0.39794025  0.03389483  0.53421497    -0.39300
C1292       C  0.38890020  0.01169532  0.51728908     0.21500
N1293       N  0.36807943  0.98767875  0.47261570    -0.32600
C1294       C  0.38102303  0.97300177  0.49900390    -0.10100
C1295       C  0.39392745  0.98742200  0.52761180    -0.29000
N1296       N  0.39746240  0.07906833  0.52337200    -0.45500
C1297       C  0.38660120  0.09384653  0.49487465    -0.04800
C1298       C  0.37221687  0.07976868  0.46760829    -0.22200
H1299       H  0.35388016  0.03288267  0.43672824     0.19600
H1300       H  0.41056156  0.03412576  0.56013890     0.18400
H1301       H  0.40593891  0.98102267  0.55199419     0.14700
H1302       H  0.36146719  0.08643299  0.44175409     0.14600
H1303       H  0.35664534  0.98197986  0.44841508     0.32700
H1304       H  0.40930117  0.08454937  0.54711272     0.35500
C1305       C  0.39841206  0.75385570  0.98539896     0.21100
C1306       C  0.40847852  0.73119053  0.97141253    -0.38800
C1307       C  0.39496360  0.70952654  0.98150287     0.20000
C1308       C  0.37342909  0.71039324  0.00456897     0.22700
C1309       C  0.36323272  0.73302983  0.01796437    -0.39300
C1310       C  0.37644620  0.75464257  0.00723502     0.21500
N1311       N  0.40738437  0.77706068  0.97953706    -0.32600
C1312       C  0.39084936  0.79282070  0.99733488    -0.10100
C1313       C  0.37124532  0.77936871  0.01466706    -0.29000
N1314       N  0.36452511  0.68730456  0.01138601    -0.45500
C1315       C  0.38012687  0.67153585  0.99180255    -0.04800
C1316       C  0.39932154  0.68469748  0.97266065    -0.22200
H1317       H  0.42551860  0.73048037  0.95389838     0.19600
H1318       H  0.34618281  0.73377182  0.03543194     0.18400
H1319       H  0.35512837  0.78677716  0.03021591     0.14700
H1320       H  0.41475292  0.67705777  0.95560758     0.14600
H1321       H  0.42361705  0.78187540  0.96396689     0.32700
H1322       H  0.34873359  0.68253322  0.02820403     0.35500
C1323       C  0.38821626  0.89094236  0.70699620     0.21100
C1324       C  0.39643700  0.90333190  0.74226282    -0.38800
C1325       C  0.38792949  0.89354152  0.77930687     0.20000
C1326       C  0.37206710  0.87325990  0.78120389     0.22700
C1327       C  0.36366737  0.86095087  0.74575972    -0.39300
C1328       C  0.37257210  0.87048219  0.70856774     0.21500
N1329       N  0.39427886  0.89625704  0.66828621    -0.32600
C1330       C  0.38262323  0.87905499  0.64466968    -0.10100
C1331       C  0.36875398  0.86265243  0.66876900    -0.29000
N1332       N  0.36736222  0.86720735  0.82033843    -0.45500
C1333       C  0.38084487  0.88341046  0.84344199    -0.04800
C1334       C  0.39360973  0.90028457  0.81875937    -0.22200
H1335       H  0.40912932  0.91899162  0.74098836     0.19600
H1336       H  0.35154780  0.84485411  0.74708720     0.18400
H1337       H  0.35722564  0.84731174  0.65849238     0.14700
H1338       H  0.40578730  0.91521644  0.82838870     0.14600
H1339       H  0.40550700  0.91089851  0.65853877     0.32700
H1340       H  0.35582621  0.85286382  0.83062096     0.35500
C1341       C  0.37236324  0.88301571  0.20542475     0.21100
C1342       C  0.35870135  0.87557700  0.23992579    -0.38800
C1343       C  0.36966684  0.88111648  0.27800625     0.20000
C1344       C  0.39245487  0.89299781  0.28122231     0.22700
C1345       C  0.40559636  0.90123709  0.24690291    -0.39300
C1346       C  0.39477405  0.89557134  0.20901056     0.21500
N1347       N  0.36681376  0.87886939  0.16582570    -0.32600
C1348       C  0.38593718  0.88876451  0.14417309    -0.10100
C1349       C  0.40353221  0.89955016  0.17018122    -0.29000
N1350       N  0.39966442  0.89473167  0.32041884    -0.45500
C1351       C  0.38119907  0.88434996  0.34285369    -0.04800
C1352       C  0.36190194  0.87599442  0.31732133    -0.22200
H1353       H  0.34116240  0.86572334  0.23731953     0.19600
H1354       H  0.42344433  0.91053696  0.24949326     0.18400
H1355       H  0.42070638  0.90868317  0.16181799     0.14700
H1356       H  0.34452305  0.86737751  0.32623123     0.14600
H1357       H  0.35114924  0.86966828  0.15419915     0.32700
H1358       H  0.41632396  0.90242166  0.33124547     0.35500
C1359       C  0.38791853  0.01536040  0.96977988     0.21100
C1360       C  0.39890092  0.03649864  0.95217501    -0.38800
C1361       C  0.39174976  0.05945375  0.96881286     0.20000
C1362       C  0.37489734  0.06130060  0.00053292     0.22700
C1363       C  0.36355816  0.04013732  0.01768407    -0.39300
C1364       C  0.37079885  0.01710730  0.00111449     0.21500
N1365       N  0.39313250  0.99142291  0.96155724    -0.32600
C1366       C  0.37948592  0.97764634  0.98803214    -0.10100
C1367       C  0.36486605  0.99308217  0.01264045    -0.29000
N1368       N  0.37244783  0.08517067  0.01248229    -0.45500
C1369       C  0.38791452  0.09856867  0.98820571    -0.04800
C1370       C  0.40002382  0.08315577  0.96034112    -0.22200
H1371       H  0.41274506  0.03512007  0.92834293     0.19600
H1372       H  0.35070094  0.04144605  0.04296865     0.18400
H1373       H  0.35232921  0.98749624  0.03678205     0.14700
H1374       H  0.41356718  0.08853821  0.93766967     0.14600
H1375       H  0.40595706  0.98486242  0.94026576     0.32700
H1376       H  0.36117480  0.09191421  0.03592686     0.35500
loop_ 
_geom_bond_atom_site_label_1 
_geom_bond_atom_site_label_2 
_geom_bond_distance 
_geom_bond_site_symmetry_2 
_ccdc_geom_bond_type 
N1            C6   1.360       .  A
N1            C5   1.357       .  A
N1           H33   1.033       .  S
N2            C9   1.353       .  A
N2           C10   1.355       .  A
N3            C8   1.355       .  A
N3            C7   1.358       .  A
N3           H34   1.039       .  S
N4           C11   1.357       .  A
N4           C12   1.354       .  A
C5           C13   1.387       .  A
C5           C21   1.426       .  A
C6           C22   1.429   1_554  A
C6           C14   1.388       .  A
C7           C15   1.385       .  A
C7           C24   1.416       .  A
C8           C23   1.420       .  A
C8           C16   1.389       .  A
C9           C21   1.421       .  A
C9           C17   1.388       .  A
C10          C24   1.416   1_554  A
C10          C18   1.384       .  A
C11          C19   1.386       .  A
C11          C22   1.423       .  A
C12          C20   1.386       .  A
C12          C23   1.421       .  A
C13          C14   1.373       .  A
C13          H25   1.081       .  S
C14          H26   1.081       .  S
C15          C16   1.371       .  A
C15          H27   1.082       .  S
C16          H28   1.082       .  S
C17          C18   1.365       .  A
C17          H29   1.079       .  S
C18          H30   1.080       .  S
C19          C20   1.368       .  A
C19          H31   1.079       .  S
C20          H32   1.079       .  S
C21        C1348   1.491       .  S
C22        C1312   1.504       .  S
C23        C1333   1.492       .  S
C24        C1366   1.497       .  S
N35          C40   1.358       .  A
N35          C39   1.358       .  A
N35          H67   1.038       .  S
N36          C43   1.354       .  A
N36          C44   1.355       .  A
N37          C42   1.355       .  A
N37          C41   1.355       .  A
N37          H68   1.040       .  S
N38          C45   1.353       .  A
N38          C46   1.354       .  A
C39          C47   1.389       .  A
C39          C55   1.425       .  A
C40          C56   1.422       .  A
C40          C48   1.385       .  A
C41          C49   1.386       .  A
C41          C58   1.414       .  A
C42          C57   1.415       .  A
C42          C50   1.387       .  A
C43          C55   1.421       .  A
C43          C51   1.389       .  A
C44          C58   1.415       .  A
C44          C52   1.384       .  A
C45          C53   1.386       .  A
C45          C56   1.416       .  A
C46          C54   1.384       .  A
C46          C57   1.413       .  A
C47          C48   1.373       .  A
C47          H59   1.078       .  S
C48          H60   1.081       .  S
C49          C50   1.370       .  A
C49          H61   1.082       .  S
C50          H62   1.082       .  S
C51          C52   1.365       .  A
C51          H63   1.079       .  S
C52          H64   1.080       .  S
C53          C54   1.370       .  A
C53          H65   1.082       .  S
C54          H66   1.079       .  S
C55        C1351   1.495       .  S
C56        C1279   1.497       .  S
C57        C1330   1.490       .  S
C58        C1294   1.492       .  S
N69          C74   1.357       .  A
N69          C73   1.355       .  A
N69         H101   1.042       .  S
N70          C77   1.353       .  A
N70          C78   1.354       .  A
N71          C76   1.354       .  A
N71          C75   1.354       .  A
N71         H102   1.042       .  S
N72          C79   1.352       .  A
N72          C80   1.353       .  A
C73          C81   1.386       .  A
C73          C89   1.416       .  A
C74          C90   1.419   1_554  A
C74          C82   1.388       .  A
C75          C83   1.385       .  A
C75          C92   1.412       .  A
C76          C91   1.414       .  A
C76          C84   1.387       .  A
C77          C89   1.415       .  A
C77          C85   1.386       .  A
C78          C92   1.414   1_554  A
C78          C86   1.384       .  A
C79          C87   1.385       .  A
C79          C90   1.414       .  A
C80          C88   1.385       .  A
C80          C91   1.414       .  A
C81          C82   1.372       .  A
C81          H93   1.082       .  S
C82          H94   1.081       .  S
C83          C84   1.372       .  A
C83          H95   1.082       .  S
C84          H96   1.082       .  S
C85          C86   1.372       .  A
C85          H97   1.081       .  S
C86          H98   1.080       .  S
C87          C88   1.369       .  A
C87          H99   1.080       .  S
C88         H100   1.078       .  S
C89        C1258   1.491       .  S
C90        C1225   1.494       .  S
C91        C1240   1.491       .  S
C92        C1369   1.491       .  S
N103        C108   1.355       .  A
N103        C107   1.356       .  A
N103        H135   1.037       .  S
N104        C111   1.355       .  A
N104        C112   1.355       .  A
N105        C110   1.354       .  A
N105        C109   1.355       .  A
N105        H136   1.040       .  S
N106        C113   1.353       .  A
N106        C114   1.353       .  A
C107        C115   1.389       .  A
C107        C123   1.422       .  A
C108        C124   1.418       .  A
C108        C116   1.386       .  A
C109        C117   1.386       .  A
C109        C126   1.415       .  A
C110        C125   1.416       .  A
C110        C118   1.388       .  A
C111        C123   1.421       .  A
C111        C119   1.388       .  A
C112        C126   1.417       .  A
C112        C120   1.382       .  A
C113        C121   1.385       .  A
C113        C124   1.415       .  A
C114        C122   1.385       .  A
C114        C125   1.415       .  A
C115        C116   1.368       .  A
C115        H127   1.080       .  S
C116        H128   1.081       .  S
C117        C118   1.374       .  A
C117        H129   1.082       .  S
C118        H130   1.082       .  S
C119        C120   1.363       .  A
C119        H131   1.075       .  S
C120        H132   1.078       .  S
C121        C122   1.368       .  A
C121        H133   1.080       .  S
C122        H134   1.079       .  S
C123       C1204   1.494       .  S
C124       C1261   1.491       .  S
C125       C1297   1.488       .  S
C126       C1243   1.497       .  S
N137        C142   1.354       .  A
N137        C141   1.356       .  A
N137        H169   1.038       .  S
N138        C145   1.356       .  A
N138        C146   1.355       .  A
N139        C144   1.356       .  A
N139        C143   1.354       .  A
N139        H170   1.039       .  S
N140        C147   1.352       .  A
N140        C148   1.352       .  A
C141        C149   1.390       .  A
C141        C157   1.420       .  A
C142        C158   1.414       .  A
C142        C150   1.384       .  A
C143        C151   1.385       .  A
C143        C160   1.413   1_556  A
C144        C159   1.418       .  A
C144        C152   1.387       .  A
C145        C157   1.423       .  A
C145        C153   1.388       .  A
C146        C160   1.418       .  A
C146        C154   1.384       .  A
C147        C155   1.386       .  A
C147        C158   1.412   1_556  A
C148        C156   1.387       .  A
C148        C159   1.414       .  A
C149        C150   1.369       .  A
C149        H161   1.078       .  S
C150        H162   1.082       .  S
C151        C152   1.373       .  A
C151        H163   1.082       .  S
C152        H164   1.079       .  S
C153        C154   1.375       .  A
C153        H165   1.081       .  S
C154        H166   1.082       .  S
C155        C156   1.372       .  A
C155        H167   1.082       .  S
C156        H168   1.082       .  S
C157       C1168   1.496       .  S
C158       C1132   1.485       .  S
C159       C1153   1.492       .  S
C160       C1186   1.490       .  S
N171        C176   1.353       .  A
N171        C175   1.355       .  A
N171        H203   1.040       .  S
N172        C179   1.354       .  A
N172        C180   1.354       .  A
N173        C178   1.357       .  A
N173        C177   1.359       .  A
N173        H204   1.037       .  S
N174        C181   1.354       .  A
N174        C182   1.352       .  A
C175        C183   1.386       .  A
C175        C191   1.414       .  A
C176        C192   1.415       .  A
C176        C184   1.387       .  A
C177        C185   1.389       .  A
C177        C194   1.426       .  A
C178        C193   1.421       .  A
C178        C186   1.386       .  A
C179        C191   1.416       .  A
C179        C187   1.382       .  A
C180        C194   1.419       .  A
C180        C188   1.388       .  A
C181        C189   1.386       .  A
C181        C192   1.416       .  A
C182        C190   1.385       .  A
C182        C193   1.414       .  A
C183        C184   1.372       .  A
C183        H195   1.082       .  S
C184        H196   1.082       .  S
C185        C186   1.376       .  A
C185        H197   1.081       .  S
C186        H198   1.082       .  S
C187        C188   1.369       .  A
C187        H199   1.081       .  S
C188        H200   1.078       .  S
C189        C190   1.371       .  A
C189        H201   1.080       .  S
C190        H202   1.081       .  S
C191       C1096   1.493       .  S
C192       C1150   1.491       .  S
C193       C1114   1.489       .  S
C194       C1171   1.497       .  S
N205        C210   1.356       .  A
N205        C209   1.358       .  A
N205        H237   1.041       .  S
N206        C213   1.356       .  A
N206        C214   1.353       .  A
N207        C212   1.360       .  A
N207        C211   1.357       .  A
N207        H238   1.039       .  S
N208        C215   1.354       .  A
N208        C216   1.356       .  A
C209        C217   1.385       .  A
C209        C225   1.417   1_554  A
C210        C226   1.420       .  A
C210        C218   1.387       .  A
C211        C219   1.386       .  A
C211        C228   1.422       .  A
C212        C227   1.426       .  A
C212        C220   1.389       .  A
C213        C225   1.415       .  A
C213        C221   1.384       .  A
C214        C228   1.419       .  A
C214        C222   1.387       .  A
C215        C223   1.385       .  A
C215        C226   1.418       .  A
C216        C224   1.387       .  A
C216        C227   1.421   1_554  A
C217        C218   1.373       .  A
C217        H229   1.082       .  S
C218        H230   1.082       .  S
C219        C220   1.372       .  A
C219        H231   1.082       .  S
C220        H232   1.079       .  S
C221        C222   1.368       .  A
C221        H233   1.081       .  S
C222        H234   1.082       .  S
C223        C224   1.369       .  A
C223        H235   1.081       .  S
C224        H236   1.079       .  S
C225       C1042   1.501       .  S
C226       C1078   1.498       .  S
C227       C1189   1.501   1_455  S
C228       C1063   1.495       .  S
N239        C244   1.357       .  A
N239        C243   1.356       .  A
N239        H271   1.041       .  S
N240        C247   1.354       .  A
N240        C248   1.356       .  A
N241        C246   1.354       .  A
N241        C245   1.357       .  A
N241        H272   1.039       .  S
N242        C249   1.354       .  A
N242        C250   1.353       .  A
C243        C251   1.387       .  A
C243        C259   1.419       .  A
C244        C260   1.419       .  A
C244        C252   1.386       .  A
C245        C253   1.389       .  A
C245        C262   1.421       .  A
C246        C261   1.417       .  A
C246        C254   1.385       .  A
C247        C259   1.418       .  A
C247        C255   1.385       .  A
C248        C262   1.421       .  A
C248        C256   1.387       .  A
C249        C257   1.386       .  A
C249        C260   1.415       .  A
C250        C258   1.385       .  A
C250        C261   1.414       .  A
C251        C252   1.375       .  A
C251        H263   1.082       .  S
C252        H264   1.082       .  S
C253        C254   1.370       .  A
C253        H265   1.079       .  S
C254        H266   1.082       .  S
C255        C256   1.372       .  A
C255        H267   1.081       .  S
C256        H268   1.079       .  S
C257        C258   1.372       .  A
C257        H269   1.082       .  S
C258        H270   1.082       .  S
C259       C1081   1.497       .  S
C260       C1024   1.499       .  S
C261       C1060   1.491       .  S
C262       C1117   1.497   1_455  S
N273        C278   1.355       .  A
N273        C277   1.359       .  A
N273        H305   1.038       .  S
N274        C281   1.358       .  A
N274        C282   1.355       .  A
N275        C280   1.359       .  A
N275        C279   1.355       .  A
N275        H306   1.039       .  S
N276        C283   1.354       .  A
N276        C284   1.356       .  A
C277        C285   1.385       .  A
C277        C293   1.421   1_554  A
C278        C294   1.422       .  A
C278        C286   1.387       .  A
C279        C287   1.388       .  A
C279        C296   1.421       .  A
C280        C295   1.419       .  A
C280        C288   1.384       .  A
C281        C293   1.420       .  A
C281        C289   1.385       .  A
C282        C296   1.421       .  A
C282        C290   1.387       .  A
C283        C291   1.388       .  A
C283        C294   1.419       .  A
C284        C292   1.384       .  A
C284        C295   1.416   1_554  A
C285        C286   1.373       .  A
C285        H297   1.081       .  S
C286        H298   1.078       .  S
C287        C288   1.374       .  A
C287        H299   1.080       .  S
C288        H300   1.081       .  S
C289        C290   1.371       .  A
C289        H301   1.081       .  S
C290        H302   1.082       .  S
C291        C292   1.370       .  A
C291        H303   1.082       .  S
C292        H304   1.082       .  S
C293        C952   1.507       .  S
C294        C991   1.491       .  S
C295       C1006   1.500       .  S
C296        C973   1.496       .  S
N307        C312   1.359       .  A
N307        C311   1.357       .  A
N307        H339   1.036       .  S
N308        C315   1.354       .  A
N308        C316   1.356       .  A
N309        C314   1.353       .  A
N309        C313   1.358       .  A
N309        H340   1.038       .  S
N310        C317   1.358       .  A
N310        C318   1.357       .  A
C311        C319   1.385       .  A
C311        C327   1.423       .  A
C312        C328   1.427       .  A
C312        C320   1.389       .  A
C313        C321   1.384       .  A
C313        C330   1.418       .  A
C314        C329   1.419       .  A
C314        C322   1.387       .  A
C315        C327   1.419       .  A
C315        C323   1.387       .  A
C316        C330   1.416       .  A
C316        C324   1.384       .  A
C317        C325   1.388       .  A
C317        C328   1.428       .  A
C318        C326   1.385       .  A
C318        C329   1.424       .  A
C319        C320   1.371       .  A
C319        H331   1.080       .  S
C320        H332   1.078       .  S
C321        C322   1.371       .  A
C321        H333   1.080       .  S
C322        H334   1.078       .  S
C323        C324   1.369       .  A
C323        H335   1.082       .  S
C324        H336   1.082       .  S
C325        C326   1.371       .  A
C325        H337   1.080       .  S
C326        H338   1.081       .  S
C327        C988   1.496       .  S
C328        C919   1.505       .  S
C329        C970   1.497       .  S
C330        C937   1.500       .  S
N341        C346   1.355       .  A
N341        C345   1.357       .  A
N341        H373   1.040       .  S
N342        C349   1.352       .  A
N342        C350   1.352       .  A
N343        C348   1.358       .  A
N343        C347   1.359       .  A
N343        H374   1.037       .  S
N344        C351   1.355       .  A
N344        C352   1.356       .  A
C345        C353   1.387       .  A
C345        C361   1.415       .  A
C346        C362   1.413       .  A
C346        C354   1.387       .  A
C347        C355   1.386       .  A
C347        C364   1.423       .  A
C348        C363   1.422   1_556  A
C348        C356   1.386       .  A
C349        C361   1.413   1_556  A
C349        C357   1.385       .  A
C350        C364   1.418       .  A
C350        C358   1.388       .  A
C351        C359   1.385       .  A
C351        C362   1.419       .  A
C352        C360   1.387       .  A
C352        C363   1.423       .  A
C353        C354   1.365       .  A
C353        H365   1.082       .  S
C354        H366   1.082       .  S
C355        C356   1.370       .  A
C355        H367   1.079       .  S
C356        H368   1.081       .  S
C357        C358   1.364       .  A
C357        H369   1.081       .  S
C358        H370   1.079       .  S
C359        C360   1.373       .  A
C359        H371   1.081       .  S
C360        H372   1.080       .  S
C361        C865   1.487       .  S
C362        C898   1.489       .  S
C363       C1009   1.501   1_554  S
C364        C880   1.494       .  S
N375        C380   1.356       .  A
N375        C379   1.358       .  A
N375        H407   1.033       .  S
N376        C383   1.355       .  A
N376        C384   1.352       .  A
N377        C382   1.358       .  A
N377        C381   1.356       .  A
N377        H408   1.033       .  S
N378        C385   1.357       .  A
N378        C386   1.359       .  A
C379        C387   1.382       .  A
C379        C395   1.419       .  A
C380        C396   1.425       .  A
C380        C388   1.391       .  A
C381        C389   1.386       .  A
C381        C398   1.419       .  A
C382        C397   1.420       .  A
C382        C390   1.385       .  A
C383        C395   1.415       .  A
C383        C391   1.386       .  A
C384        C398   1.413       .  A
C384        C392   1.386       .  A
C385        C393   1.388       .  A
C385        C396   1.428       .  A
C386        C394   1.384       .  A
C386        C397   1.424       .  A
C387        C388   1.369       .  A
C387        H399   1.081       .  S
C388        H400   1.077       .  S
C389        C390   1.370       .  A
C389        H401   1.079       .  S
C390        H402   1.080       .  S
C391        C392   1.369       .  A
C391        H403   1.081       .  S
C392        H404   1.082       .  S
C393        C394   1.368       .  A
C393        H405   1.079       .  S
C394        H406   1.080       .  S
C395        C844   1.499       .  S
C396        C901   1.497       .  S
C397        C934   1.507       .  S
C398        C883   1.486       .  S
O409       Ni417   1.929       .  S
O409        C419   1.283       .  A
O410       Ni417   1.924       .  S
O410        C420   1.283   1_556  A
O411       Ni417   1.919       .  S
O411        C421   1.281       .  A
O412       Ni417   1.914       .  S
O412        C422   1.280   1_556  A
O413       Ni418   1.924       .  S
O413        C422   1.282       .  A
O414       Ni418   1.922       .  S
O414        C421   1.282   1_554  A
O415       Ni418   1.920       .  S
O415        C420   1.281       .  A
O416       Ni418   1.913       .  S
O416        C419   1.280   1_554  A
Ni417      Ni418   2.390   1_556  S
C419        C477   1.471       .  S
C420        C829   1.474       .  S
C421        C449   1.471       .  S
C422       C1222   1.470       .  S
O423       Ni431   1.927       .  S
O423        C433   1.283       .  A
O424       Ni431   1.917       .  S
O424        C434   1.281       .  A
O425       Ni431   1.914       .  S
O425        C435   1.280       .  A
O426       Ni431   1.918       .  S
O426        C436   1.281       .  A
O427       Ni432   1.921       .  S
O427        C436   1.282       .  A
O428       Ni432   1.928       .  S
O428        C435   1.284       .  A
O429       Ni432   1.916       .  S
O429        C434   1.279       .  A
O430       Ni432   1.913       .  S
O430        C433   1.280       .  A
Ni431      Ni432   2.390       .  S
C433        C463   1.471       .  S
C434       C1207   1.462       .  S
C435        C491   1.472       .  S
C436        C808   1.471       .  S
O437       Ni445   1.921       .  S
O437        C447   1.282   1_554  A
O438       Ni445   1.925       .  S
O438        C448   1.282   1_554  A
O439       Ni445   1.917       .  S
O439        C449   1.281   1_554  A
O440       Ni445   1.931       .  S
O440        C450   1.283   1_554  A
O441       Ni446   1.928       .  S
O441        C450   1.282       .  A
O442       Ni446   1.925       .  S
O442        C449   1.283       .  A
O443       Ni446   1.929       .  S
O443        C448   1.283       .  A
O444       Ni446   1.914       .  S
O444        C447   1.280       .  A
Ni445      Ni446   2.388   1_554  S
C447        C503   1.467       .  S
C448       C1045   1.479       .  S
C450       C1315   1.480       .  S
O451       Ni459   1.920       .  S
O451        C461   1.282       .  A
O452       Ni459   1.919       .  S
O452        C462   1.281       .  A
O453       Ni459   1.926       .  S
O453        C463   1.282       .  A
O454       Ni459   1.924       .  S
O454        C464   1.282       .  A
O455       Ni460   1.922       .  S
O455        C464   1.281       .  A
O456       Ni460   1.916       .  S
O456        C463   1.281       .  A
O457       Ni460   1.931       .  S
O457        C462   1.283       .  A
O458       Ni460   1.925       .  S
O458        C461   1.282       .  A
Ni459      Ni460   2.389       .  S
C461        C519   1.473       .  S
C462       C1027   1.477       .  S
C464       C1276   1.474       .  S
O465       Ni473   1.921       .  S
O465        C475   1.282       .  A
O466       Ni473   1.927       .  S
O466        C476   1.283       .  A
O467       Ni473   1.928       .  S
O467        C477   1.283       .  A
O468       Ni473   1.940       .  S
O468        C478   1.285       .  A
O469       Ni474   1.914       .  S
O469        C478   1.280   1_554  A
O470       Ni474   1.912       .  S
O470        C477   1.280   1_554  A
O471       Ni474   1.929       .  S
O471        C476   1.283   1_554  A
O472       Ni474   1.917       .  S
O472        C475   1.280   1_554  A
Ni473      Ni474   2.388   1_556  S
C475        C505   1.469       .  S
C476        C955   1.482       .  S
C478        C793   1.480       .  S
O479       Ni487   1.920       .  S
O479        C489   1.282       .  A
O480       Ni487   1.932       .  S
O480        C490   1.283       .  A
O481       Ni487   1.918       .  S
O481        C491   1.280       .  A
O482       Ni487   1.926       .  S
O482        C492   1.282       .  A
O483       Ni488   1.922       .  S
O483        C492   1.282       .  A
O484       Ni488   1.924       .  S
O484        C491   1.283       .  A
O485       Ni488   1.922       .  S
O485        C490   1.280       .  A
O486       Ni488   1.917       .  S
O486        C489   1.280       .  A
Ni487      Ni488   2.389       .  S
C489        C517   1.468       .  S
C490        C916   1.477       .  S
C492        C772   1.477       .  S
O493       Ni501   1.918       .  S
O493        C503   1.282       .  A
O494       Ni501   1.909       .  S
O494        C504   1.280   1_556  A
O495       Ni501   1.914       .  S
O495        C505   1.280       .  A
O496       Ni501   1.916       .  S
O496        C506   1.280   1_556  A
O497       Ni502   1.913       .  S
O497        C506   1.280       .  A
O498       Ni502   1.922       .  S
O498        C505   1.283   1_554  A
O499       Ni502   1.920       .  S
O499        C504   1.280       .  A
O500       Ni502   1.917       .  S
O500        C503   1.281   1_554  A
Ni501      Ni502   2.391   1_556  S
C504       C1135   1.463       .  S
C506        C862   1.462       .  S
O507       Ni515   1.924       .  S
O507        C517   1.283       .  A
O508       Ni515   1.928       .  S
O508        C518   1.283       .  A
O509       Ni515   1.915       .  S
O509        C519   1.280       .  A
O510       Ni515   1.922       .  S
O510        C520   1.281       .  A
O511       Ni516   1.925       .  S
O511        C520   1.282       .  A
O512       Ni516   1.929       .  S
O512        C519   1.283       .  A
O513       Ni516   1.911       .  S
O513        C518   1.279       .  A
O514       Ni516   1.914       .  S
O514        C517   1.280       .  A
Ni515      Ni516   2.390       .  S
C518        C847   1.471       .  S
C520       C1099   1.475       .  S
N521        C526   1.354       .  A
N521        C525   1.353       .  A
N521        H553   1.040       .  S
N522        C529   1.357       .  A
N522        C530   1.354       .  A
N523        C528   1.357       .  A
N523        C527   1.354       .  A
N523        H554   1.040       .  S
N524        C531   1.351       .  A
N524        C532   1.351       .  A
C525        C533   1.385       .  A
C525        C541   1.416   1_556  A
C526        C542   1.413       .  A
C526        C534   1.384       .  A
C527        C535   1.388       .  A
C527        C544   1.421       .  A
C528        C543   1.418       .  A
C528        C536   1.385       .  A
C529        C541   1.417       .  A
C529        C537   1.385       .  A
C530        C544   1.419       .  A
C530        C538   1.387       .  A
C531        C539   1.386       .  A
C531        C542   1.412       .  A
C532        C540   1.385       .  A
C532        C543   1.410   1_556  A
C533        C534   1.374       .  A
C533        H545   1.082       .  S
C534        H546   1.081       .  S
C535        C536   1.378       .  A
C535        H547   1.082       .  S
C536        H548   1.082       .  S
C537        C538   1.374       .  A
C537        H549   1.081       .  S
C538        H550   1.082       .  S
C539        C540   1.370       .  A
C539        H551   1.082       .  S
C540        H552   1.082       .  S
C541        C826   1.500       .  S
C542        C718   1.489       .  S
C543        C757   1.492       .  S
C544        C736   1.496       .  S
N555        C560   1.354       .  A
N555        C559   1.355       .  A
N555        H587   1.042       .  S
N556        C563   1.351       .  A
N556        C564   1.351       .  A
N557        C562   1.354       .  A
N557        C561   1.355       .  A
N557        H588   1.041       .  S
N558        C565   1.354       .  A
N558        C566   1.353       .  A
C559        C567   1.387       .  A
C559        C575   1.416       .  A
C560        C576   1.414       .  A
C560        C568   1.386       .  A
C561        C569   1.387       .  A
C561        C578   1.416       .  A
C562        C577   1.414       .  A
C562        C570   1.386       .  A
C563        C575   1.411       .  A
C563        C571   1.385       .  A
C564        C578   1.413       .  A
C564        C572   1.386       .  A
C565        C573   1.384       .  A
C565        C576   1.414       .  A
C566        C574   1.386       .  A
C566        C577   1.416       .  A
C567        C568   1.374       .  A
C567        H579   1.082       .  S
C568        H580   1.082       .  S
C569        C570   1.375       .  A
C569        H581   1.082       .  S
C570        H582   1.082       .  S
C571        C572   1.373       .  A
C571        H583   1.082       .  S
C572        H584   1.082       .  S
C573        C574   1.370       .  A
C573        H585   1.081       .  S
C574        H586   1.079       .  S
C575        C811   1.492       .  S
C576        C739   1.493       .  S
C577        C700   1.488       .  S
C578        C721   1.493       .  S
N589        C594   1.358       .  A
N589        C593   1.357       .  A
N589        H621   1.039       .  S
N590        C597   1.355       .  A
N590        C598   1.355       .  A
N591        C596   1.355       .  A
N591        C595   1.354       .  A
N591        H622   1.041       .  S
N592        C599   1.354       .  A
N592        C600   1.355       .  A
C593        C601   1.387       .  A
C593        C609   1.423       .  A
C594        C610   1.424       .  A
C594        C602   1.387       .  A
C595        C603   1.387       .  A
C595        C612   1.415   1_556  A
C596        C611   1.417       .  A
C596        C604   1.386       .  A
C597        C609   1.420       .  A
C597        C605   1.388       .  A
C598        C612   1.417       .  A
C598        C606   1.384       .  A
C599        C607   1.385       .  A
C599        C610   1.416   1_556  A
C600        C608   1.384       .  A
C600        C611   1.416       .  A
C601        C602   1.377       .  A
C601        H613   1.080       .  S
C602        H614   1.081       .  S
C603        C604   1.375       .  A
C603        H615   1.082       .  S
C604        H616   1.082       .  S
C605        C606   1.364       .  A
C605        H617   1.078       .  S
C606        H618   1.080       .  S
C607        C608   1.369       .  A
C607        H619   1.082       .  S
C608        H620   1.077       .  S
C609        C685   1.494       .  S
C610        C790   1.501       .  S
C611        C664   1.498       .  S
C612        C754   1.495       .  S
N623        C628   1.358       .  A
N623        C627   1.356       .  A
N623        H655   1.039       .  S
N624        C631   1.354       .  A
N624        C632   1.356       .  A
N625        C630   1.356       .  A
N625        C629   1.357       .  A
N625        H656   1.041       .  S
N626        C633   1.355       .  A
N626        C634   1.355       .  A
C627        C635   1.386       .  A
C627        C643   1.421       .  A
C628        C644   1.422       .  A
C628        C636   1.388       .  A
C629        C637   1.387       .  A
C629        C646   1.417       .  A
C630        C645   1.414       .  A
C630        C638   1.385       .  A
C631        C643   1.419       .  A
C631        C639   1.385       .  A
C632        C646   1.417       .  A
C632        C640   1.384       .  A
C633        C641   1.387       .  A
C633        C644   1.419       .  A
C634        C642   1.386       .  A
C634        C645   1.418       .  A
C635        C636   1.373       .  A
C635        H647   1.081       .  S
C636        H648   1.078       .  S
C637        C638   1.370       .  A
C637        H649   1.081       .  S
C638        H650   1.082       .  S
C639        C640   1.370       .  A
C639        H651   1.080       .  S
C640        H652   1.079       .  S
C641        C642   1.365       .  A
C641        H653   1.080       .  S
C642        H654   1.080       .  S
C643        C775   1.499       .  S
C644        C682   1.495       .  S
C645        C703   1.496       .  S
C646        C667   1.501       .  S
C657        N663   1.346       .  A
C657        C662   1.382       .  A
C657        C658   1.407       .  A
C658        C659   1.406       .  A
C658        H669   1.082       .  S
C659        C668   1.383       .  A
C659        C660   1.382       .  A
C660        N666   1.343       .  A
C660        C661   1.405       .  A
C661        C662   1.403       .  A
C661        H670   1.082       .  S
C662        C665   1.378       .  A
N663        C664   1.359       .  A
N663        H673   1.044       .  S
C664        C665   1.398       .  A
C665        H671   1.080       .  S
N666        C667   1.359       .  A
N666        H674   1.043       .  S
C667        C668   1.400       .  A
C668        H672   1.082       .  S
C675        N681   1.339       .  A
C675        C680   1.383       .  A
C675        C676   1.398       .  A
C676        C677   1.397       .  A
C676        H687   1.083       .  S
C677        C686   1.371       .  A
C677        C678   1.382       .  A
C678        N684   1.348       .  A
C678        C679   1.410       .  A
C679        C680   1.410       .  A
C679        H688   1.082       .  S
C680        C683   1.385       .  A
N681        C682   1.354       .  A
N681        H691   1.045       .  S
C682        C683   1.402       .  A
C683        H689   1.082       .  S
N684        C685   1.360       .  A
N684        H692   1.044       .  S
C685        C686   1.393       .  A
C686        H690   1.082       .  S
C693        N699   1.343       .  A
C693        C698   1.384       .  A
C693        C694   1.402       .  A
C694        C695   1.401       .  A
C694        H705   1.082       .  S
C695        C704   1.376       .  A
C695        C696   1.383       .  A
C696        N702   1.344       .  A
C696        C697   1.406       .  A
C697        C698   1.405       .  A
C697        H706   1.082       .  S
C698        C701   1.380       .  A
N699        C700   1.355   1_655  A
N699        H709   1.045       .  S
C700        C701   1.398   1_455  A
C701        H707   1.082       .  S
N702        C703   1.358       .  A
N702        H710   1.044       .  S
C703        C704   1.397       .  A
C704        H708   1.082       .  S
C711        N717   1.345       .  A
C711        C716   1.382       .  A
C711        C712   1.406       .  A
C712        C713   1.406       .  A
C712        H723   1.082       .  S
C713        C722   1.380       .  A
C713        C714   1.383       .  A
C714        N720   1.341       .  A
C714        C715   1.400       .  A
C715        C716   1.397       .  A
C715        H724   1.081       .  S
C716        C719   1.372       .  A
N717        C718   1.358       .  A
N717        H727   1.045       .  S
C718        C719   1.394       .  A
C719        H725   1.082       .  S
N720        C721   1.356       .  A
N720        H728   1.044       .  S
C721        C722   1.400       .  A
C722        H726   1.082       .  S
C729        N735   1.344       .  A
C729        C734   1.382       .  A
C729        C730   1.404       .  A
C730        C731   1.401       .  A
C730        H741   1.079       .  S
C731        C740   1.378       .  A
C731        C732   1.382       .  A
C732        N738   1.345       .  A
C732        C733   1.406       .  A
C733        C734   1.405       .  A
C733        H742   1.082       .  S
C734        C737   1.380       .  A
N735        C736   1.358       .  A
N735        H745   1.044       .  S
C736        C737   1.399       .  A
C737        H743   1.082       .  S
N738        C739   1.358       .  A
N738        H746   1.044       .  S
C739        C740   1.397       .  A
C740        H744   1.082       .  S
C747        N753   1.344       .  A
C747        C752   1.383   1_556  A
C747        C748   1.403       .  A
C748        C749   1.403       .  A
C748        H759   1.082       .  S
C749        C758   1.376       .  A
C749        C750   1.384   1_556  A
C750        N756   1.347       .  A
C750        C751   1.405       .  A
C751        C752   1.405       .  A
C751        H760   1.082       .  S
C752        C755   1.379       .  A
N753        C754   1.357   1_556  A
N753        H763   1.045       .  S
C754        C755   1.399       .  A
C755        H761   1.082       .  S
N756        C757   1.357   1_655  A
N756        H764   1.044       .  S
C757        C758   1.398   1_454  A
C758        H762   1.083       .  S
C765        N771   1.344       .  A
C765        C770   1.384       .  A
C765        C766   1.402       .  A
C766        C767   1.402       .  A
C766        H777   1.082       .  S
C767        C776   1.375       .  A
C767        C768   1.383       .  A
C768        N774   1.347       .  A
C768        C769   1.408       .  A
C769        C770   1.408       .  A
C769        H778   1.082       .  S
C770        C773   1.383       .  A
N771        C772   1.355       .  A
N771        H781   1.045       .  S
C772        C773   1.399       .  A
C773        H779   1.082       .  S
N774        C775   1.360       .  A
N774        H782   1.044       .  S
C775        C776   1.397       .  A
C776        H780   1.082       .  S
C783        N789   1.348       .  A
C783        C788   1.383   1_554  A
C783        C784   1.405       .  A
C784        C785   1.407       .  A
C784        H795   1.082       .  S
C785        C794   1.378       .  A
C785        C786   1.384   1_554  A
C786        N792   1.350       .  A
C786        C787   1.406       .  A
C787        C788   1.407       .  A
C787        H796   1.082       .  S
C788        C791   1.377       .  A
N789        C790   1.358       .  A
N789        H799   1.044       .  S
C790        C791   1.401   1_554  A
C791        H797   1.082       .  S
N792        C793   1.357       .  A
N792        H800   1.045       .  S
C793        C794   1.397   1_556  A
C794        H798   1.082       .  S
C801        N807   1.344       .  A
C801        C806   1.385       .  A
C801        C802   1.403       .  A
C802        C803   1.402       .  A
C802        H813   1.082       .  S
C803        C812   1.377       .  A
C803        C804   1.383       .  A
C804        N810   1.344       .  A
C804        C805   1.405       .  A
C805        C806   1.404       .  A
C805        H814   1.082       .  S
C806        C809   1.379       .  A
N807        C808   1.355       .  A
N807        H817   1.045       .  S
C808        C809   1.396       .  A
C809        H815   1.082       .  S
N810        C811   1.358       .  A
N810        H818   1.045       .  S
C811        C812   1.398       .  A
C812        H816   1.082       .  S
C819        N825   1.349       .  A
C819        C824   1.383   1_554  A
C819        C820   1.408       .  A
C820        C821   1.409       .  A
C820        H831   1.082       .  S
C821        C830   1.383       .  A
C821        C822   1.385   1_554  A
C822        N828   1.344       .  A
C822        C823   1.401       .  A
C823        C824   1.401       .  A
C823        H832   1.082       .  S
C824        C827   1.373       .  A
N825        C826   1.360       .  A
N825        H835   1.044       .  S
C826        C827   1.398   1_554  A
C827        H833   1.082       .  S
N828        C829   1.354   1_556  A
N828        H836   1.045       .  S
C829        C830   1.399       .  A
C830        H834   1.082       .  S
C837        N843   1.345       .  A
C837        C842   1.383       .  A
C837        C838   1.406       .  A
C838        C839   1.405       .  A
C838        H849   1.082       .  S
C839        C848   1.382       .  A
C839        C840   1.384       .  A
C840        N846   1.343       .  A
C840        C841   1.404       .  A
C841        C842   1.403       .  A
C841        H850   1.082       .  S
C842        C845   1.378       .  A
N843        C844   1.359       .  A
N843        H853   1.045       .  S
C844        C845   1.399       .  A
C845        H851   1.082       .  S
N846        C847   1.356       .  A
N846        H854   1.045       .  S
C847        C848   1.396       .  A
C848        H852   1.082       .  S
C855        N861   1.340       .  A
C855        C860   1.385   1_554  A
C855        C856   1.401       .  A
C856        C857   1.399       .  A
C856        H867   1.082       .  S
C857        C866   1.374       .  A
C857        C858   1.384   1_554  A
C858        N864   1.341       .  A
C858        C859   1.402       .  A
C859        C860   1.401       .  A
C859        H868   1.082       .  S
C860        C863   1.378       .  A
N861        C862   1.354       .  A
N861        H871   1.045       .  S
C862        C863   1.393   1_554  A
C863        H869   1.082       .  S
N864        C865   1.356   1_556  A
N864        H872   1.045       .  S
C865        C866   1.395       .  A
C866        H870   1.083       .  S
C873        N879   1.344       .  A
C873        C878   1.382       .  A
C873        C874   1.403       .  A
C874        C875   1.403       .  A
C874        H885   1.082       .  S
C875        C884   1.377       .  A
C875        C876   1.384       .  A
C876        N882   1.341       .  A
C876        C877   1.401       .  A
C877        C878   1.401       .  A
C877        H886   1.083       .  S
C878        C881   1.372       .  A
N879        C880   1.357       .  A
N879        H889   1.045       .  S
C880        C881   1.396       .  A
C881        H887   1.076       .  S
N882        C883   1.355       .  A
N882        H890   1.041       .  S
C883        C884   1.395       .  A
C884        H888   1.082       .  S
C891        N897   1.347       .  A
C891        C896   1.384       .  A
C891        C892   1.405       .  A
C892        C893   1.405       .  A
C892        H903   1.082       .  S
C893        C902   1.377       .  A
C893        C894   1.382       .  A
C894        N900   1.343       .  A
C894        C895   1.402       .  A
C895        C896   1.402       .  A
C895        H904   1.083       .  S
C896        C899   1.375       .  A
N897        C898   1.356       .  A
N897        H907   1.044       .  S
C898        C899   1.396       .  A
C899        H905   1.082       .  S
N900        C901   1.357       .  A
N900        H908   1.044       .  S
C901        C902   1.399       .  A
C902        H906   1.082       .  S
C909        N915   1.347       .  A
C909        C914   1.384       .  A
C909        C910   1.407       .  A
C910        C911   1.406       .  A
C910        H921   1.082       .  S
C911        C920   1.382       .  A
C911        C912   1.382       .  A
C912        N918   1.346       .  A
C912        C913   1.408       .  A
C913        C914   1.407       .  A
C913        H922   1.082       .  S
C914        C917   1.383       .  A
N915        C916   1.356       .  A
N915        H925   1.045       .  S
C916        C917   1.397       .  A
C917        H923   1.082       .  S
N918        C919   1.359       .  A
N918        H926   1.044       .  S
C919        C920   1.400       .  A
C920        H924   1.082       .  S
C927        N933   1.348   1_545  A
C927        C932   1.381       .  A
C927        C928   1.409       .  A
C928        C929   1.408       .  A
C928        H939   1.082       .  S
C929        C938   1.384       .  A
C929        C930   1.382       .  A
C930        N936   1.344       .  A
C930        C931   1.405       .  A
C931        C932   1.405       .  A
C931        H940   1.082       .  S
C932        C935   1.380   1_545  A
N933        C934   1.361       .  A
N933        H943   1.045       .  S
C934        C935   1.399       .  A
C935        H941   1.079       .  S
N936        C937   1.357       .  A
N936        H944   1.041       .  S
C937        C938   1.400       .  A
C938        H942   1.082       .  S
C945        N951   1.347       .  A
C945        C950   1.382   1_556  A
C945        C946   1.408       .  A
C946        C947   1.408       .  A
C946        H957   1.082       .  S
C947        C956   1.384       .  A
C947        C948   1.384   1_556  A
C948        N954   1.348       .  A
C948        C949   1.407       .  A
C949        C950   1.407       .  A
C949        H958   1.082       .  S
C950        C953   1.382       .  A
N951        C952   1.359       .  A
N951        H961   1.042       .  S
C952        C953   1.401   1_556  A
C953        H959   1.082       .  S
N954        C955   1.357   1_554  A
N954        H962   1.045       .  S
C955        C956   1.398       .  A
C956        H960   1.082       .  S
C963        N969   1.343       .  A
C963        C968   1.383       .  A
C963        C964   1.402       .  A
C964        C965   1.402       .  A
C964        H975   1.082       .  S
C965        C974   1.373       .  A
C965        C966   1.382       .  A
C966        N972   1.347       .  A
C966        C967   1.406       .  A
C967        C968   1.407       .  A
C967        H976   1.082       .  S
C968        C971   1.380       .  A
N969        C970   1.356       .  A
N969        H979   1.042       .  S
C970        C971   1.400       .  A
C971        H977   1.082       .  S
N972        C973   1.359       .  A
N972        H980   1.045       .  S
C973        C974   1.395       .  A
C974        H978   1.076       .  S
C981        N987   1.345       .  A
C981        C986   1.383       .  A
C981        C982   1.406       .  A
C982        C983   1.405       .  A
C982        H993   1.082       .  S
C983        C992   1.380       .  A
C983        C984   1.383       .  A
C984        N990   1.342       .  A
C984        C985   1.402       .  A
C985        C986   1.401       .  A
C985        H994   1.082       .  S
C986        C989   1.375       .  A
N987        C988   1.358       .  A
N987        H997   1.045       .  S
C988        C989   1.396       .  A
C989        H995   1.080       .  S
N990        C991   1.356       .  A
N990        H998   1.044       .  S
C991        C992   1.398       .  A
C992        H996   1.082       .  S
C999       N1005   1.349       .  A
C999       C1004   1.383   1_556  A
C999       C1000   1.408       .  A
C1000      C1001   1.408       .  A
C1000      H1011   1.082       .  S
C1001      C1010   1.381   1_545  A
C1001      C1002   1.383   1_556  A
C1002      N1008   1.347   1_545  A
C1002      C1003   1.406       .  A
C1003      C1004   1.406       .  A
C1003      H1012   1.082       .  S
C1004      C1007   1.379       .  A
N1005      C1006   1.359       .  A
N1005      H1015   1.044       .  S
C1006      C1007   1.397   1_556  A
C1007      H1013   1.077       .  S
N1008      C1009   1.358   1_554  A
N1008      H1016   1.042       .  S
C1009      C1010   1.400       .  A
C1010      H1014   1.082       .  S
C1017      N1023   1.346       .  A
C1017      C1022   1.383       .  A
C1017      C1018   1.406       .  A
C1018      C1019   1.406       .  A
C1018      H1029   1.082       .  S
C1019      C1028   1.381       .  A
C1019      C1020   1.384       .  A
C1020      N1026   1.346       .  A
C1020      C1021   1.406       .  A
C1021      C1022   1.405       .  A
C1021      H1030   1.082       .  S
C1022      C1025   1.380       .  A
N1023      C1024   1.359       .  A
N1023      H1033   1.045       .  S
C1024      C1025   1.399       .  A
C1025      H1031   1.082       .  S
N1026      C1027   1.356       .  A
N1026      H1034   1.045       .  S
C1027      C1028   1.397       .  A
C1028      H1032   1.082       .  S
C1035      N1041   1.346       .  A
C1035      C1040   1.383   1_556  A
C1035      C1036   1.407       .  A
C1036      C1037   1.406       .  A
C1036      H1047   1.082       .  S
C1037      C1046   1.384       .  A
C1037      C1038   1.384   1_556  A
C1038      N1044   1.346       .  A
C1038      C1039   1.407       .  A
C1039      C1040   1.406       .  A
C1039      H1048   1.082       .  S
C1040      C1043   1.382       .  A
N1041      C1042   1.359       .  A
N1041      H1051   1.044       .  S
C1042      C1043   1.400   1_556  A
C1043      H1049   1.082       .  S
N1044      C1045   1.357   1_554  A
N1044      H1052   1.045       .  S
C1045      C1046   1.397       .  A
C1046      H1050   1.082       .  S
C1053      N1059   1.345       .  A
C1053      C1058   1.383       .  A
C1053      C1054   1.404       .  A
C1054      C1055   1.404       .  A
C1054      H1065   1.082       .  S
C1055      C1064   1.376       .  A
C1055      C1056   1.383       .  A
C1056      N1062   1.344       .  A
C1056      C1057   1.402       .  A
C1057      C1058   1.401       .  A
C1057      H1066   1.079       .  S
C1058      C1061   1.375       .  A
N1059      C1060   1.357       .  A
N1059      H1069   1.045       .  S
C1060      C1061   1.397       .  A
C1061      H1067   1.082       .  S
N1062      C1063   1.357       .  A
N1062      H1070   1.044       .  S
C1063      C1064   1.399       .  A
C1064      H1068   1.082       .  S
C1071      N1077   1.345       .  A
C1071      C1076   1.382       .  A
C1071      C1072   1.406       .  A
C1072      C1073   1.406       .  A
C1072      H1083   1.082       .  S
C1073      C1082   1.381       .  A
C1073      C1074   1.383       .  A
C1074      N1080   1.344       .  A
C1074      C1075   1.404       .  A
C1075      C1076   1.402       .  A
C1075      H1084   1.081       .  S
C1076      C1079   1.378       .  A
N1077      C1078   1.359       .  A
N1077      H1087   1.045       .  S
C1078      C1079   1.397       .  A
C1079      H1085   1.082       .  S
N1080      C1081   1.357       .  A
N1080      H1088   1.044       .  S
C1081      C1082   1.400       .  A
C1082      H1086   1.082       .  S
C1089      N1095   1.345       .  A
C1089      C1094   1.383       .  A
C1089      C1090   1.407       .  A
C1090      C1091   1.406       .  A
C1090      H1101   1.082       .  S
C1091      C1100   1.382       .  A
C1091      C1092   1.385       .  A
C1092      N1098   1.344       .  A
C1092      C1093   1.403       .  A
C1093      C1094   1.402       .  A
C1093      H1102   1.082       .  S
C1094      C1097   1.377       .  A
N1095      C1096   1.358       .  A
N1095      H1105   1.044       .  S
C1096      C1097   1.396       .  A
C1097      H1103   1.082       .  S
N1098      C1099   1.355       .  A
N1098      H1106   1.045       .  S
C1099      C1100   1.398       .  A
C1100      H1104   1.082       .  S
C1107      N1113   1.343       .  A
C1107      C1112   1.383       .  A
C1107      C1108   1.403       .  A
C1108      C1109   1.402       .  A
C1108      H1119   1.082       .  S
C1109      C1118   1.376       .  A
C1109      C1110   1.381       .  A
C1110      N1116   1.345       .  A
C1110      C1111   1.406       .  A
C1111      C1112   1.405       .  A
C1111      H1120   1.082       .  S
C1112      C1115   1.381       .  A
N1113      C1114   1.353       .  A
N1113      H1123   1.037       .  S
C1114      C1115   1.397       .  A
C1115      H1121   1.082       .  S
N1116      C1117   1.359       .  A
N1116      H1124   1.044       .  S
C1117      C1118   1.395       .  A
C1118      H1122   1.074       .  S
C1125      N1131   1.341       .  A
C1125      C1130   1.385   1_556  A
C1125      C1126   1.399       .  A
C1126      C1127   1.399       .  A
C1126      H1137   1.082       .  S
C1127      C1136   1.372       .  A
C1127      C1128   1.385   1_556  A
C1128      N1134   1.345       .  A
C1128      C1129   1.404       .  A
C1129      C1130   1.404       .  A
C1129      H1138   1.082       .  S
C1130      C1133   1.376       .  A
N1131      C1132   1.354   1_556  A
N1131      H1141   1.044       .  S
C1132      C1133   1.398       .  A
C1133      H1139   1.082       .  S
N1134      C1135   1.355       .  A
N1134      H1142   1.045       .  S
C1135      C1136   1.392   1_554  A
C1136      H1140   1.082       .  S
C1143      N1149   1.346       .  A
C1143      C1148   1.383       .  A
C1143      C1144   1.406       .  A
C1144      C1145   1.406       .  A
C1144      H1155   1.082       .  S
C1145      C1154   1.380       .  A
C1145      C1146   1.383       .  A
C1146      N1152   1.340       .  A
C1146      C1147   1.399       .  A
C1147      C1148   1.398       .  A
C1147      H1156   1.082       .  S
C1148      C1151   1.370       .  A
N1149      C1150   1.358       .  A
N1149      H1159   1.044       .  S
C1150      C1151   1.395       .  A
C1151      H1157   1.079       .  S
N1152      C1153   1.355       .  A
N1152      H1160   1.041       .  S
C1153      C1154   1.399       .  A
C1154      H1158   1.082       .  S
C1161      N1167   1.344       .  A
C1161      C1166   1.383       .  A
C1161      C1162   1.404       .  A
C1162      C1163   1.403       .  A
C1162      H1173   1.083       .  S
C1163      C1172   1.379       .  A
C1163      C1164   1.382       .  A
C1164      N1170   1.346       .  A
C1164      C1165   1.407       .  A
C1165      C1166   1.406       .  A
C1165      H1174   1.082       .  S
C1166      C1169   1.382       .  A
N1167      C1168   1.357       .  A
N1167      H1177   1.044       .  S
C1168      C1169   1.399       .  A
C1169      H1175   1.082       .  S
N1170      C1171   1.358       .  A
N1170      H1178   1.045       .  S
C1171      C1172   1.398       .  A
C1172      H1176   1.082       .  S
C1179      N1185   1.346       .  A
C1179      C1184   1.383   1_556  A
C1179      C1180   1.406       .  A
C1180      C1181   1.406       .  A
C1180      H1191   1.082       .  S
C1181      C1190   1.381       .  A
C1181      C1182   1.382   1_556  A
C1182      N1188   1.346       .  A
C1182      C1183   1.406       .  A
C1183      C1184   1.405       .  A
C1183      H1192   1.082       .  S
C1184      C1187   1.381       .  A
N1185      C1186   1.357   1_556  A
N1185      H1195   1.045       .  S
C1186      C1187   1.394       .  A
C1187      H1193   1.076       .  S
N1188      C1189   1.358   1_554  A
N1188      H1196   1.043       .  S
C1189      C1190   1.400       .  A
C1190      H1194   1.082       .  S
C1197      N1203   1.343       .  A
C1197      C1202   1.381       .  A
C1197      C1198   1.405       .  A
C1198      C1199   1.405       .  A
C1198      H1209   1.082       .  S
C1199      C1208   1.381       .  A
C1199      C1200   1.385       .  A
C1200      N1206   1.340       .  A
C1200      C1201   1.399       .  A
C1201      C1202   1.398       .  A
C1201      H1210   1.082       .  S
C1202      C1205   1.372       .  A
N1203      C1204   1.360       .  A
N1203      H1213   1.045       .  S
C1204      C1205   1.395       .  A
C1205      H1211   1.081       .  S
N1206      C1207   1.352       .  A
N1206      H1214   1.045       .  S
C1207      C1208   1.395       .  A
C1208      H1212   1.082       .  S
C1215      N1221   1.343       .  A
C1215      C1220   1.385   1_556  A
C1215      C1216   1.402       .  A
C1216      C1217   1.402       .  A
C1216      H1227   1.082       .  S
C1217      C1226   1.375       .  A
C1217      C1218   1.383   1_556  A
C1218      N1224   1.345       .  A
C1218      C1219   1.405       .  A
C1219      C1220   1.405       .  A
C1219      H1228   1.082       .  S
C1220      C1223   1.380       .  A
N1221      C1222   1.355   1_556  A
N1221      H1231   1.045       .  S
C1222      C1223   1.396       .  A
C1223      H1229   1.082       .  S
N1224      C1225   1.358   1_554  A
N1224      H1232   1.044       .  S
C1225      C1226   1.398       .  A
C1226      H1230   1.082       .  S
C1233      N1239   1.345       .  A
C1233      C1238   1.383       .  A
C1233      C1234   1.404       .  A
C1234      C1235   1.404       .  A
C1234      H1245   1.082       .  S
C1235      C1244   1.377       .  A
C1235      C1236   1.382       .  A
C1236      N1242   1.343       .  A
C1236      C1237   1.402       .  A
C1237      C1238   1.402       .  A
C1237      H1246   1.082       .  S
C1238      C1241   1.374       .  A
N1239      C1240   1.357       .  A
N1239      H1249   1.044       .  S
C1240      C1241   1.397       .  A
C1241      H1247   1.080       .  S
N1242      C1243   1.356       .  A
N1242      H1250   1.042       .  S
C1243      C1244   1.400       .  A
C1244      H1248   1.082       .  S
C1251      N1257   1.345       .  A
C1251      C1256   1.382       .  A
C1251      C1252   1.404       .  A
C1252      C1253   1.404       .  A
C1252      H1263   1.082       .  S
C1253      C1262   1.377       .  A
C1253      C1254   1.383       .  A
C1254      N1260   1.341       .  A
C1254      C1255   1.401       .  A
C1255      C1256   1.400       .  A
C1255      H1264   1.083       .  S
C1256      C1259   1.372       .  A
N1257      C1258   1.357       .  A
N1257      H1267   1.044       .  S
C1258      C1259   1.394       .  A
C1259      H1265   1.075       .  S
N1260      C1261   1.355       .  A
N1260      H1268   1.043       .  S
C1261      C1262   1.398       .  A
C1262      H1266   1.082       .  S
C1269      N1275   1.345       .  A
C1269      C1274   1.384       .  A
C1269      C1270   1.405       .  A
C1270      C1271   1.404       .  A
C1270      H1281   1.082       .  S
C1271      C1280   1.380       .  A
C1271      C1272   1.383       .  A
C1272      N1278   1.344       .  A
C1272      C1273   1.406       .  A
C1273      C1274   1.405       .  A
C1273      H1282   1.082       .  S
C1274      C1277   1.381       .  A
N1275      C1276   1.356       .  A
N1275      H1285   1.045       .  S
C1276      C1277   1.396       .  A
C1277      H1283   1.082       .  S
N1278      C1279   1.359       .  A
N1278      H1286   1.045       .  S
C1279      C1280   1.398       .  A
C1280      H1284   1.081       .  S
C1287      N1293   1.344   1_545  A
C1287      C1292   1.383       .  A
C1287      C1288   1.405       .  A
C1288      C1289   1.404       .  A
C1288      H1299   1.082       .  S
C1289      C1298   1.380       .  A
C1289      C1290   1.384       .  A
C1290      N1296   1.340       .  A
C1290      C1291   1.401       .  A
C1291      C1292   1.400       .  A
C1291      H1300   1.082       .  S
C1292      C1295   1.374   1_545  A
N1293      C1294   1.358       .  A
N1293      H1303   1.044       .  S
C1294      C1295   1.395       .  A
C1295      H1301   1.079       .  S
N1296      C1297   1.354       .  A
N1296      H1304   1.043       .  S
C1297      C1298   1.398       .  A
C1298      H1302   1.082       .  S
C1305      N1311   1.350       .  A
C1305      C1310   1.382   1_556  A
C1305      C1306   1.410       .  A
C1306      C1307   1.410       .  A
C1306      H1317   1.083       .  S
C1307      C1316   1.385       .  A
C1307      C1308   1.385   1_556  A
C1308      N1314   1.347       .  A
C1308      C1309   1.405       .  A
C1309      C1310   1.405       .  A
C1309      H1318   1.082       .  S
C1310      C1313   1.379       .  A
N1311      C1312   1.361       .  A
N1311      H1321   1.044       .  S
C1312      C1313   1.398   1_556  A
C1313      H1319   1.082       .  S
N1314      C1315   1.355   1_554  A
N1314      H1322   1.045       .  S
C1315      C1316   1.399       .  A
C1316      H1320   1.082       .  S
C1323      N1329   1.339       .  A
C1323      C1328   1.383       .  A
C1323      C1324   1.401       .  A
C1324      C1325   1.399       .  A
C1324      H1335   1.083       .  S
C1325      C1334   1.373       .  A
C1325      C1326   1.383       .  A
C1326      N1332   1.346       .  A
C1326      C1327   1.406       .  A
C1327      C1328   1.405       .  A
C1327      H1336   1.082       .  S
C1328      C1331   1.382       .  A
N1329      C1330   1.354       .  A
N1329      H1339   1.041       .  S
C1330      C1331   1.398       .  A
C1331      H1337   1.082       .  S
N1332      C1333   1.358       .  A
N1332      H1340   1.044       .  S
C1333      C1334   1.395       .  A
C1334      H1338   1.080       .  S
C1341      N1347   1.346       .  A
C1341      C1346   1.383       .  A
C1341      C1342   1.407       .  A
C1342      C1343   1.406       .  A
C1342      H1353   1.082       .  S
C1343      C1352   1.381       .  A
C1343      C1344   1.382       .  A
C1344      N1350   1.340       .  A
C1344      C1345   1.400       .  A
C1345      C1346   1.399       .  A
C1345      H1354   1.083       .  S
C1346      C1349   1.373       .  A
N1347      C1348   1.358       .  A
N1347      H1357   1.045       .  S
C1348      C1349   1.393       .  A
C1349      H1355   1.080       .  S
N1350      C1351   1.356       .  A
N1350      H1358   1.045       .  S
C1351      C1352   1.400       .  A
C1352      H1356   1.082       .  S
C1359      N1365   1.344   1_545  A
C1359      C1364   1.383   1_556  A
C1359      C1360   1.403       .  A
C1360      C1361   1.403       .  A
C1360      H1371   1.082       .  S
C1361      C1370   1.376       .  A
C1361      C1362   1.384   1_556  A
C1362      N1368   1.347       .  A
C1362      C1363   1.407       .  A
C1363      C1364   1.407       .  A
C1363      H1372   1.082       .  S
C1364      C1367   1.382   1_545  A
N1365      C1366   1.356       .  A
N1365      H1375   1.043       .  S
C1366      C1367   1.400   1_556  A
C1367      H1373   1.082       .  S
N1368      C1369   1.357   1_554  A
N1368      H1376   1.044       .  S
C1369      C1370   1.395       .  A
C1370      H1374   1.080       .  S
