geometry optimzed in LAMMPS
_audit_creation_date              2020-11-30 
_audit_creation_method            'lammps2cif' 
_symmetry_space_group_name_H-M    'P1' 
_symmetry_Int_Tables_number       1 
_symmetry_cell_setting            triclinic 
loop_ 
_symmetry_equiv_pos_as_xyz 
  x,y,z 
_cell_length_a                    62.50342846 
_cell_length_b                    62.075905399536936 
_cell_length_c                    43.481494491316234 
_cell_angle_alpha                 88.79661122551819 
_cell_angle_beta                  90.98463048256542 
_cell_angle_gamma                 121.40537117195042 
loop_ 
_atom_site_label 
_atom_site_type_symbol 
_atom_site_fract_x 
_atom_site_fract_y 
_atom_site_fract_z 
_atom_site_charge 
Fe1        Fe  0.21609505  0.28447280  0.19567130     1.65800
Fe2        Fe  0.24878112  0.25477673  0.18743032     1.73200
Fe3        Fe  0.23179464  0.27653212  0.12385170     1.54400
O4          O  0.19501094  0.26916935  0.12179199    -0.81900
O5          O  0.28140326  0.27609460  0.16222454    -0.80200
O6          O  0.18382538  0.26942513  0.16993175    -0.84400
O7          O  0.23164531  0.31824690  0.17207033    -0.79200
O8          O  0.21814388  0.23846986  0.11656866    -0.81000
O9          O  0.26589386  0.28046400  0.22260758    -0.83700
C10         C  0.24309924  0.32805412  0.14702616     0.97000
C11         C  0.17895008  0.26655171  0.14144860     1.04500
O12         O  0.23224310  0.27191732  0.16894413    -1.12700
O13         O  0.21759436  0.23073877  0.21406288    -0.75200
O14         O  0.19855307  0.25210263  0.22222878    -0.78600
O15         O  0.24609827  0.31532022  0.12683445    -0.79300
C16         C  0.20023587  0.23273734  0.22581714     0.95900
O17         O  0.24612932  0.30150974  0.22493823    -0.77300
O18         O  0.23487891  0.22730689  0.15446301    -0.82500
C19         C  0.28519085  0.28432091  0.13458941     0.98500
C20         C  0.22327278  0.22285547  0.12904266     1.04500
O21         O  0.26815332  0.28449807  0.11848322    -0.78100
C22         C  0.26349743  0.29790959  0.23333102     1.02800
Fe23       Fe  0.21165442  0.43008274  0.19807682     1.65800
Fe24       Fe  0.24878665  0.99776107  0.19267326     1.73200
Fe25       Fe  0.23033465  0.45793347  0.12694177     1.54400
O26         O  0.24031941  0.43065356  0.12987594    -0.81900
O27         O  0.23322341  0.01173001  0.16183549    -0.80200
O28         O  0.22765758  0.41298838  0.17622814    -0.84400
O29         O  0.18079577  0.41379622  0.16989644    -0.79200
O30         O  0.26790481  0.48441992  0.12415983    -0.81000
O31         O  0.21878233  0.98883582  0.22165023    -0.83700
C32         C  0.17615886  0.41547743  0.14180810     0.97000
C33         C  0.23841813  0.41522361  0.15092169     1.04500
O34         O  0.22954556  0.46079989  0.17226458    -1.12700
O35         O  0.26691717  0.98792656  0.22558495    -0.75200
O36         O  0.24028136  0.44226117  0.22948384    -0.78600
O37         O  0.19262344  0.43090583  0.12315187    -0.79300
C38         C  0.25941130  0.46301285  0.23700580     0.95900
O39         O  0.19365822  0.44351631  0.22317247    -0.77300
O40         O  0.28066481  0.01112645  0.16593420    -0.82500
C41         C  0.22450498  0.00692916  0.13462439     0.98500
C42         C  0.28580416  0.00518749  0.14052173     1.04500
O43         O  0.22108318  0.48524286  0.11861953    -0.78100
C44         C  0.19746449  0.46503109  0.22969892     1.02800
Fe45       Fe  0.07463184  0.28969599  0.19133370     1.65800
Fe46       Fe  0.51440123  0.25543675  0.18578456     1.73200
Fe47       Fe  0.04513678  0.27287624  0.12138174     1.54400
O48         O  0.07198933  0.31097676  0.11834698    -0.81900
O49         O  0.50091168  0.22331533  0.15953355    -0.80200
O50         O  0.08825543  0.32192060  0.16552825    -0.84400
O51         O  0.09241272  0.27651257  0.16542253    -0.79200
O52         O  0.01809570  0.28221024  0.11604816    -0.81000
O53         O  0.02284126  0.23898809  0.22199990    -0.83700
C54         C  0.08932677  0.26634154  0.13951989     0.97000
C55         C  0.08629978  0.32728813  0.13779960     1.04500
O56         O  0.04351130  0.27230026  0.16692356    -1.12700
O57         O  0.01987525  0.28522099  0.21555535    -0.75200
O58         O  0.06127477  0.30529604  0.22097184    -0.78600
O59         O  0.07222249  0.26311269  0.12067620    -0.79300
C60         C  0.04029612  0.30259318  0.22711554     0.95900
O61         O  0.06438618  0.25932077  0.21955028    -0.77300
O62         O  0.49806326  0.26940504  0.15662508    -0.82500
C63         C  0.50445164  0.21922615  0.13212050     0.98500
C64         C  0.50217607  0.27953740  0.13007550     1.04500
O65         O  0.01831019  0.23521221  0.11829701    -0.78100
C66         C  0.04381643  0.24221966  0.23069370     1.02800
Fe67       Fe  0.23957144  0.12137728  0.02291361     1.65800
Fe68       Fe  0.17625481  0.09020610  0.01655133     1.73200
Fe69       Fe  0.21331329  0.10720256  0.44978716     1.54400
O70         O  0.23642915  0.14638942  0.44870402    -0.81900
O71         O  0.16295644  0.05945028  0.48551058    -0.80200
O72         O  0.25825273  0.15144484  0.99319007    -0.84400
O73         O  0.25318464  0.10157586  0.00252845    -0.79200
O74         O  0.18299214  0.11134994  0.44195342    -0.81000
O75         O  0.18422349  0.06883219  0.04700941    -0.83700
C76         C  0.25771175  0.10079844  0.47018961     0.97000
C77         C  0.25313421  0.16113019  0.46769470     1.04500
O78         O  0.20929606  0.10594598  0.99715097    -1.12700
O79         O  0.18744755  0.11954178  0.04797272    -0.75200
O80         O  0.22918653  0.14291770  0.04612251    -0.78600
O81         O  0.24398266  0.10237786  0.44952558    -0.79300
C82         C  0.20832507  0.13918289  0.05498605     0.95900
O83         O  0.22504448  0.09335772  0.05604218    -0.77300
O84         O  0.16385628  0.10715132  0.48632575    -0.82500
C85         C  0.16920924  0.05345946  0.46078681     0.98500
C86         C  0.16607500  0.11146491  0.45749551     1.04500
O87         O  0.18959391  0.06841445  0.44690792    -0.78100
C88         C  0.20417051  0.07326000  0.06081511     1.02800
Fe89       Fe  0.38248595  0.11744123  0.02924955     1.65800
Fe90       Fe  0.41491216  0.08745076  0.02133832     1.73200
Fe91       Fe  0.39771177  0.10805415  0.45711255     1.54400
O92         O  0.36102533  0.10021916  0.45627840    -0.81900
O93         O  0.44723441  0.10822851  0.49479564    -0.80200
O94         O  0.34924864  0.10024103  0.00535549    -0.84400
O95         O  0.39593363  0.15008912  0.00368619    -0.79200
O96         O  0.38402683  0.07018258  0.45101463    -0.81000
O97         O  0.43464716  0.11611661  0.05301074    -0.83700
C98         C  0.40724476  0.15919947  0.47738220     0.97000
C99         C  0.34496077  0.09658363  0.47644339     1.04500
O100        O  0.39769335  0.10382495  0.00255797    -1.12700
O101        O  0.38665692  0.06614153  0.05280096    -0.75200
O102        O  0.36697857  0.08699960  0.05861370    -0.78600
O103        O  0.41125881  0.14648336  0.45833172    -0.79300
C104        C  0.37001963  0.06884271  0.06525815     0.95900
O105        O  0.41372021  0.13601371  0.05652038    -0.77300
O106        O  0.39987069  0.05879320  0.48970283    -0.82500
C107        C  0.45084197  0.11552138  0.46696272     0.98500
C108        C  0.38789957  0.05411393  0.46424781     1.04500
O109        O  0.43401418  0.11607676  0.45073022    -0.78100
C110        C  0.43173633  0.13320459  0.06416271     1.02800
Fe111      Fe  0.38095277  0.26246533  0.02850847     1.65800
Fe112      Fe  0.41541178  0.32655793  0.02238575     1.73200
Fe113      Fe  0.39447395  0.29016762  0.45789471     1.54400
O114        O  0.40250882  0.26161526  0.45706004    -0.81900
O115        O  0.40084782  0.34193852  0.49453903    -0.80200
O116        O  0.39477653  0.24518366  0.00286175    -0.84400
O117        O  0.34819853  0.24669905  0.00341218    -0.79200
O118        O  0.43210460  0.31537598  0.45194853    -0.81000
O119        O  0.38757632  0.31767573  0.05479235    -0.83700
C120        C  0.34070785  0.25031084  0.47821665     0.97000
C121        C  0.40058154  0.24538408  0.47681519     1.04500
O122        O  0.39678331  0.29317204  0.00260102    -1.12700
O123        O  0.43506176  0.31641806  0.05178690    -0.75200
O124        O  0.41200525  0.27463551  0.05619033    -0.78600
O125        O  0.35625662  0.26464878  0.45795855    -0.79300
C126        C  0.43155555  0.29564729  0.06224089     0.95900
O127        O  0.36509530  0.27577348  0.05784163    -0.77300
O128        O  0.44655952  0.33874779  0.49386903    -0.82500
C129        C  0.39061553  0.33732093  0.46824394     0.98500
C130        C  0.44987266  0.33281193  0.46725047     1.04500
O131        O  0.38664736  0.31850144  0.45261773    -0.78100
C132        C  0.36947985  0.29720628  0.06579942     1.02800
Fe133      Fe  0.40347775  0.45436435  0.36231849     1.65800
Fe134      Fe  0.33963749  0.42012149  0.35843757     1.73200
Fe135      Fe  0.37466051  0.43811258  0.29192820     1.54400
O136        O  0.40083977  0.47656357  0.28925736    -0.81900
O137        O  0.32522139  0.38915389  0.33070638    -0.80200
O138        O  0.41846917  0.48661846  0.33583829    -0.84400
O139        O  0.42041434  0.43965953  0.33754746    -0.79200
O140        O  0.34721121  0.44707481  0.28650146    -0.81000
O141        O  0.34989502  0.40105503  0.38905800    -0.83700
C142        C  0.41803392  0.43012529  0.31136507     0.97000
C143        C  0.41561828  0.49261313  0.30868896     1.04500
O144        O  0.37254139  0.43752944  0.33752366    -1.12700
O145        O  0.34917465  0.44862220  0.38933137    -0.75200
O146        O  0.39078739  0.47093427  0.39108454    -0.78600
O147        O  0.40226305  0.42873737  0.29145748    -0.79300
C148        C  0.36968004  0.46656214  0.39975490     0.95900
O149        O  0.39154299  0.42403603  0.39145658    -0.77300
O150        O  0.32557400  0.43696173  0.33003868    -0.82500
C151        C  0.33006516  0.38395043  0.30475976     0.98500
C152        C  0.33000461  0.44597738  0.30280832     1.04500
O153        O  0.34842006  0.40010560  0.28863622    -0.78100
C154        C  0.37072713  0.40487838  0.39917015     1.02800
Fe155      Fe  0.04095909  0.44542161  0.35893160     1.65800
Fe156      Fe  0.07762245  0.42121320  0.35207955     1.73200
Fe157      Fe  0.05698727  0.43818284  0.28825672     1.54400
O158        O  0.01971637  0.42996667  0.28884698    -0.81900
O159        O  0.10899968  0.44461307  0.32649668    -0.80200
O160        O  0.00768047  0.42109728  0.33751542    -0.84400
O161        O  0.04641725  0.47375275  0.32930015    -0.79200
O162        O  0.04387126  0.40065973  0.28314101    -0.81000
O163        O  0.09273292  0.44877283  0.38620734    -0.83700
C164        C  0.05909904  0.48484429  0.30550521     0.97000
C165        C  0.00278490  0.42238641  0.30929094     1.04500
O166        O  0.05868176  0.43488406  0.33305510    -1.12700
O167        O  0.04825347  0.39586578  0.37995494    -0.75200
O168        O  0.03222650  0.41881278  0.39322353    -0.78600
O169        O  0.06998243  0.47623723  0.29014978    -0.79300
C170        C  0.03418654  0.39964582  0.39675763     0.95900
O171        O  0.07350835  0.47039435  0.38066987    -0.77300
O172        O  0.06471066  0.39293453  0.31936068    -0.82500
C173        C  0.11160139  0.44914026  0.29785624     0.98500
C174        C  0.05095213  0.38663103  0.29516944     1.04500
O175        O  0.09364303  0.44663092  0.28087095    -0.78100
C176        C  0.09078502  0.46776405  0.39207553     1.02800
Fe177      Fe  0.03894473  0.09236042  0.35584549     1.65800
Fe178      Fe  0.07962809  0.15532468  0.35024358     1.73200
Fe179      Fe  0.05641143  0.11964981  0.28541361     1.54400
O180        O  0.06528294  0.09188544  0.28567118    -0.81900
O181        O  0.06750140  0.17301634  0.32037102    -0.80200
O182        O  0.04331569  0.06947749  0.32635623    -0.84400
O183        O  0.00655410  0.08515428  0.33417633    -0.79200
O184        O  0.09388571  0.14598880  0.27873063    -0.81000
O185        O  0.05134121  0.15033017  0.37949097    -0.83700
C186        C  0.00120105  0.08360555  0.30569476     0.97000
C187        C  0.05529639  0.07192342  0.30201968     1.04500
O188        O  0.05860178  0.12262550  0.33045814    -1.12700
O189        O  0.09415755  0.14037843  0.38170009    -0.75200
O190        O  0.07052739  0.09835441  0.37859359    -0.78600
O191        O  0.01809498  0.09290610  0.28525585    -0.79300
C192        C  0.09010756  0.11832796  0.38750593     0.95900
O193        O  0.03051742  0.10934560  0.38977086    -0.77300
O194        O  0.11025901  0.16534543  0.32271613    -0.82500
C195        C  0.05466001  0.16734682  0.29561746     0.98500
C196        C  0.11253441  0.16185585  0.29463520     1.04500
O197        O  0.04774729  0.14720812  0.28113638    -0.78100
C198        C  0.03431005  0.13117895  0.39375785     1.02800
C199        C  0.03743562  0.00480333  0.29682719    -0.06000
C200        C  0.06095015  0.00718234  0.29771375     0.00000
C201        C  0.08283446  0.03111995  0.29302347    -0.08600
C202        C  0.08038331  0.05250148  0.29102685    -0.06000
C203        C  0.05673949  0.05000648  0.29306239    -0.00100
C204        C  0.03485638  0.02564172  0.29344061    -0.08500
C205        C  0.00831940  0.02044543  0.29136378     0.61900
H206        H  0.01818249  0.48557656  0.30015566     0.12500
H207        H  0.09693052  0.07128423  0.29020596     0.12600
C208        C  0.10842915  0.03403343  0.29200932     0.62100
F209        F  0.99546674  0.00338525  0.26815343    -0.23100
F210        F  0.00759548  0.04182543  0.28473328    -0.20400
F211        F  0.99615934  0.01016511  0.31890177    -0.20100
F212        F  0.10920498  0.02040785  0.26774273    -0.20100
F213        F  0.11302095  0.02511930  0.31921026    -0.20500
F214        F  0.12732403  0.05899801  0.28793425    -0.23100
C215        C  0.44358137  0.02619649  0.27341357    -0.06000
C216        C  0.42988539  0.01798587  0.30082747     0.00000
C217        C  0.43429891  0.03597286  0.32341473    -0.08600
C218        C  0.45657594  0.05941925  0.32198686    -0.06000
C219        C  0.47358241  0.06556736  0.29788136    -0.00100
C220        C  0.46511848  0.05059956  0.27105915    -0.08500
C221        C  0.97774018  0.06134509  0.23912205     0.61900
H222        H  0.43883209  0.01284986  0.25507564     0.12500
H223        H  0.46180963  0.07198244  0.34136208     0.12600
C224        C  0.41700787  0.03060167  0.35035296     0.62100
F225        F  0.95912985  0.05439549  0.21705725    -0.23100
F226        F  0.99117186  0.05007070  0.23245482    -0.20400
F227        F  0.99324097  0.08726267  0.23710880    -0.20100
F228        F  0.42804374  0.02845906  0.37716071    -0.20100
F229        F  0.39390792  0.00878233  0.34639415    -0.20500
F230        F  0.41289185  0.05030903  0.35327061    -0.23100
C231        C  0.45054570  0.43005511  0.27894555    -0.06000
C232        C  0.43481986  0.42059950  0.30464961     0.00000
C233        C  0.43803091  0.40509920  0.32623093    -0.08600
C234        C  0.45986097  0.40404139  0.32496355    -0.06000
C235        C  0.47798667  0.41698805  0.30203255    -0.00100
C236        C  0.47187994  0.42782537  0.27671156    -0.08500
C237        C  0.98753144  0.43751295  0.24729032     0.61900
H238        H  0.44703998  0.44073575  0.26172715     0.12500
H239        H  0.46363574  0.39440092  0.34338189     0.12600
C240        C  0.41965519  0.39122050  0.35215110     0.62100
F241        F  0.47644497  0.44419481  0.22509124    -0.23100
F242        F  0.99045870  0.41845011  0.23630215    -0.20400
F243        F  0.01076547  0.45839091  0.25365742    -0.20100
F244        F  0.39537479  0.38283750  0.34246746    -0.20100
F245        F  0.42560521  0.40711701  0.37680106    -0.20500
F246        F  0.42053571  0.37031071  0.36189747    -0.23100
C247        C  0.36292950  0.34461974  0.43410387    -0.06000
C248        C  0.38333414  0.35473990  0.45473200     0.00000
C249        C  0.39709430  0.38117322  0.46009462    -0.08600
C250        C  0.39086553  0.39648064  0.44280529    -0.06000
C251        C  0.37168839  0.38654405  0.42056214    -0.00100
C252        C  0.35666037  0.36003324  0.41696912    -0.08500
C253        C  0.33462363  0.34797632  0.39469478     0.61900
H254        H  0.35216245  0.32436702  0.43100527     0.12500
H255        H  0.40163875  0.41675691  0.44574990     0.12600
C256        C  0.41895264  0.39366216  0.48275709     0.62100
F257        F  0.32332721  0.32197534  0.39415002    -0.23100
F258        F  0.34255700  0.35716184  0.36520327    -0.20400
F259        F  0.31677130  0.35333552  0.40356222    -0.20100
F260        F  0.43691859  0.38798519  0.47547343    -0.20100
F261        F  0.41029051  0.38556738  0.01193726    -0.20500
F262        F  0.43043398  0.41970120  0.48233909    -0.23100
C263        C  0.00299435  0.35560210  0.41102035    -0.06000
C264        C  0.01805637  0.38069776  0.42020458     0.00000
C265        C  0.01363112  0.38780895  0.44905108    -0.08600
C266        C  0.49126408  0.37258826  0.46314151    -0.06000
C267        C  0.47506530  0.34796598  0.45255640    -0.00100
C268        C  0.48264402  0.33957967  0.42689909    -0.08500
C269        C  0.46815842  0.31239074  0.41617375     0.61900
H270        H  0.00707146  0.35016260  0.38941477     0.12500
H271        H  0.48611636  0.37889542  0.48321706     0.12600
C272        C  0.03161469  0.41277106  0.46417987     0.62100
F273        F  0.48215119  0.30756134  0.39621357    -0.23100
F274        F  0.44653351  0.30748283  0.40084536    -0.20400
F275        F  0.46208917  0.29606989  0.44112886    -0.20100
F276        F  0.02056267  0.42707091  0.46558885    -0.20100
F277        F  0.05414639  0.42645100  0.44883447    -0.20500
F278        F  0.03690273  0.40820308  0.49378950    -0.23100
C279        C  0.48205124  0.13803714  0.42544384    -0.06000
C280        C  0.47512402  0.12263419  0.45210647     0.00000
C281        C  0.48982101  0.11208943  0.46139215    -0.08600
C282        C  0.01134639  0.11952154  0.44291500    -0.06000
C283        C  0.01720447  0.13334632  0.41520286    -0.00100
C284        C  0.50194496  0.14195693  0.40663461    -0.08500
C285        C  0.50642307  0.15586355  0.37604682     0.61900
H286        H  0.47087534  0.14602002  0.41850455     0.12500
H287        H  0.02221984  0.11106731  0.44925177     0.12600
C288        C  0.48319144  0.09423746  0.48898678     0.62100
F289        F  0.48927435  0.16326106  0.37054118    -0.23100
F290        F  0.00733802  0.14614263  0.35212242    -0.20400
F291        F  0.03349618  0.18131698  0.37869635    -0.20100
F292        F  0.45905040  0.07373136  0.48567298    -0.20100
F293        F  0.49151618  0.13347945  0.01532351    -0.20500
F294        F  0.00202053  0.09067649  0.49463435    -0.23100
C295        C  0.38827444  0.01423530  0.46127267    -0.06000
C296        C  0.37944962  0.02940982  0.44885588     0.00000
C297        C  0.36443081  0.02118370  0.42144642    -0.08600
C298        C  0.35501165  0.49469647  0.41551088    -0.06000
C299        C  0.36930690  0.48375632  0.42225444    -0.00100
C300        C  0.38408492  0.49055100  0.44937243    -0.08500
C301        C  0.39570340  0.47566833  0.46115188     0.61900
H302        H  0.39928043  0.01998599  0.48227611     0.12500
H303        H  0.34275919  0.48832145  0.39552756     0.12600
C304        C  0.35279477  0.03523119  0.40680060     0.62100
F305        F  0.40435317  0.48190518  0.49110830    -0.23100
F306        F  0.41567861  0.48049437  0.44295736    -0.20400
F307        F  0.37791257  0.45010744  0.46077081    -0.20100
F308        F  0.37137905  0.05833176  0.39520207    -0.20100
F309        F  0.33888538  0.03870002  0.42837391    -0.20500
F310        F  0.33683510  0.02204489  0.38263230    -0.23100
C311        C  0.40129662  0.18908345  0.44593653    -0.06000
C312        C  0.41430189  0.18535722  0.47008605     0.00000
C313        C  0.42740740  0.20453854  0.49200229    -0.08600
C314        C  0.42405324  0.22514348  0.49166964    -0.06000
C315        C  0.40863083  0.22748482  0.46972440    -0.00100
C316        C  0.39806534  0.20996623  0.44546201    -0.08500
C317        C  0.38173351  0.21210858  0.42087734     0.61900
H318        H  0.39140456  0.17416643  0.42940162     0.12500
H319        H  0.43241490  0.23885084  0.50992295     0.12600
C320        C  0.44319506  0.20280463  0.51773130     0.62100
F321        F  0.37275279  0.19271062  0.39995233    -0.23100
F322        F  0.39556561  0.23469088  0.40490473    -0.20400
F323        F  0.35977377  0.21279083  0.93529250    -0.20100
F324        F  0.44960682  0.18504539  0.51195296    -0.20100
F325        F  0.43005595  0.19652447  0.54500381    -0.20500
F326        F  0.46521258  0.22589871  0.52104244    -0.23100
C327        C  0.13596658  0.09880684  0.41444518    -0.06000
C328        C  0.14689347  0.11421698  0.44018313     0.00000
C329        C  0.13943258  0.13139108  0.44789098    -0.08600
C330        C  0.12040898  0.13168307  0.43054636    -0.06000
C331        C  0.10917548  0.11593613  0.40527203    -0.00100
C332        C  0.11747549  0.09958988  0.39644964    -0.08500
C333        C  0.10781626  0.08385990  0.36749827     0.61900
H334        H  0.14202324  0.08593632  0.40857427     0.12500
H335        H  0.11431276  0.14452396  0.43637116     0.12600
C336        C  0.15271517  0.15057070  0.47270515     0.62100
F337        F  0.12138346  0.07267220  0.36077099    -0.23100
F338        F  0.10979098  0.09908660  0.34266643    -0.20400
F339        F  0.08305553  0.06486032  0.37121113    -0.20100
F340        F  0.17781973  0.16511912  0.46530469    -0.20100
F341        F  0.14962734  0.13836286  0.50068427    -0.20500
F342        F  0.14362315  0.16656754  0.47536801    -0.23100
C343        C  0.12504035  0.02082983  0.45093966    -0.06000
C344        C  0.15038763  0.02900014  0.44634942     0.00000
C345        C  0.15634419  0.01489885  0.42661571    -0.08600
C346        C  0.13448831  0.49307410  0.41166558    -0.06000
C347        C  0.10978269  0.48804109  0.41215483    -0.00100
C348        C  0.10547897  0.00022708  0.43532520    -0.08500
C349        C  0.07830060  0.49986259  0.43175503     0.61900
H350        H  0.12055936  0.03180176  0.46560650     0.12500
H351        H  0.13849189  0.48154645  0.39731823     0.12600
C352        C  0.18320874  0.02222934  0.42078079     0.62100
F353        F  0.07696219  0.00552573  0.46624950    -0.23100
F354        F  0.06042234  0.47491111  0.43794552    -0.20400
F355        F  0.07080991  0.00202687  0.41528870    -0.20100
F356        F  0.19585090  0.02595977  0.44844452    -0.20100
F357        F  0.19515454  0.04412284  0.40313150    -0.20500
F358        F  0.18127596  0.49990657  0.40892134    -0.23100
C359        C  0.27262210  0.20346416  0.48811585    -0.06000
C360        C  0.26850345  0.18864101  0.46219053     0.00000
C361        C  0.28457407  0.19952967  0.43664876    -0.08600
C362        C  0.30774770  0.22209462  0.44121212    -0.06000
C363        C  0.31397387  0.23408623  0.46986686    -0.00100
C364        C  0.29494336  0.22656394  0.49203917    -0.08500
C365        C  0.29876182  0.24077835  0.52158061     0.61900
H366        H  0.25947475  0.19558223  0.50703574     0.12500
H367        H  0.32187674  0.22915850  0.42340810     0.12600
C368        C  0.27746969  0.18745501  0.40528602     0.62100
F369        F  0.27639723  0.23811405  0.53078224    -0.23100
F370        F  0.31588826  0.26631003  0.51754611    -0.20400
F371        F  0.30710015  0.22960296  0.04533142    -0.20100
F372        F  0.25517243  0.18519970  0.39579128    -0.20100
F373        F  0.27443807  0.16382559  0.40639428    -0.20500
F374        F  0.29554182  0.20187541  0.38354553    -0.23100
C375        C  0.27637635  0.07471336  0.47946913    -0.06000
C376        C  0.27660718  0.09429129  0.46241653     0.00000
C377        C  0.29764719  0.11047862  0.44399118    -0.08600
C378        C  0.31900322  0.10843377  0.44621303    -0.06000
C379        C  0.31989138  0.09112614  0.46663807    -0.00100
C380        C  0.29773203  0.07267108  0.48166700    -0.08500
C381        C  0.29670729  0.05102918  0.49989776     0.61900
H382        H  0.25989175  0.06210403  0.49289455     0.12500
H383        H  0.33011343  0.11294450  0.93139401     0.12600
C384        C  0.29348605  0.12370295  0.92374376     0.62100
F385        F  0.27240951  0.03307176  0.50820075    -0.23100
F386        F  0.31093193  0.05973856  0.52647749    -0.20400
F387        F  0.30582330  0.03939464  0.48208584    -0.20100
F388        F  0.29372675  0.14225262  0.94103552    -0.20100
F389        F  0.27867577  0.12130261  0.40393426    -0.20500
F390        F  0.31435748  0.13511088  0.90499748    -0.23100
C391        C  0.44212702  0.27770450  0.10660054    -0.06000
C392        C  0.45079085  0.29526396  0.08219518     0.00000
C393        C  0.47679346  0.30945797  0.07559253    -0.08600
C394        C  0.49303620  0.30478940  0.09330844    -0.06000
C395        C  0.48416941  0.28603386  0.11653608    -0.00100
C396        C  0.45816651  0.27249113  0.12379186    -0.08500
C397        C  0.44678455  0.25175670  0.14837632     0.61900
H398        H  0.42223744  0.26735019  0.11139400     0.12500
H399        H  0.51288160  0.31522901  0.08831911     0.12600
C400        C  0.48731836  0.32827502  0.04889095     0.62100
F401        F  0.42094877  0.24011943  0.14958852    -0.23100
F402        F  0.45622980  0.26190525  0.17698831    -0.20400
F403        F  0.45218606  0.23331704  0.14220424    -0.20100
F404        F  0.48358625  0.34800123  0.05384827    -0.20100
F405        F  0.47556252  0.31640449  0.02179440    -0.20500
F406        F  0.51281888  0.33843260  0.04536105    -0.23100
C407        C  0.46238260  0.18071783  0.12824926    -0.06000
C408        C  0.48745790  0.19396765  0.11863747     0.00000
C409        C  0.49468694  0.18401150  0.09446447    -0.08600
C410        C  0.47595781  0.16300221  0.07837010    -0.06000
C411        C  0.45058786  0.15158212  0.08591363    -0.00100
C412        C  0.44376054  0.15952468  0.11241995    -0.08500
C413        C  0.41699730  0.14580627  0.12413118     0.61900
H414        H  0.45707688  0.18797740  0.14716441     0.12500
H415        H  0.48090086  0.15631428  0.05854997     0.12600
C416        C  0.01932995  0.19478415  0.08790576     0.62100
F417        F  0.41575482  0.15310721  0.15360295    -0.23100
F418        F  0.40744793  0.12008253  0.12496903    -0.20400
F419        F  0.40218700  0.15095829  0.10517025    -0.20100
F420        F  0.03416352  0.19986451  0.11391572    -0.20100
F421        F  0.02735097  0.21682201  0.07111449    -0.20500
F422        F  0.02252625  0.17850506  0.06997670    -0.23100
C423        C  0.02629384  0.33229892  0.23791963    -0.06000
C424        C  0.04005888  0.32133262  0.24744695     0.00000
C425        C  0.05439692  0.32957230  0.27493722    -0.08600
C426        C  0.05632939  0.35009390  0.29037622    -0.06000
C427        C  0.04430152  0.36265121  0.27960774    -0.00100
C428        C  0.02790816  0.35277098  0.25354611    -0.08500
C429        C  0.01228144  0.36353398  0.24160964     0.61900
H430        H  0.01510105  0.32540397  0.21711209     0.12500
H431        H  0.06825839  0.35704049  0.31056573     0.12600
C432        C  0.06739610  0.31661063  0.28836106     0.62100
F433        F  0.99526263  0.34851858  0.21922131    -0.23100
F434        F  0.02768282  0.38721339  0.22864855    -0.20400
F435        F  0.99874611  0.36505568  0.26543685    -0.20100
F436        F  0.08788815  0.32231297  0.27062661    -0.20100
F437        F  0.05065504  0.29082355  0.28921622    -0.20500
F438        F  0.07585272  0.32419638  0.31811593    -0.23100
C439        C  0.02544285  0.19869868  0.24987833    -0.06000
C440        C  0.04430722  0.22419149  0.25293283     0.00000
C441        C  0.06464282  0.23079586  0.27357422    -0.08600
C442        C  0.06673444  0.21145662  0.28738688    -0.06000
C443        C  0.04899204  0.18593337  0.28235143    -0.00100
C444        C  0.02735397  0.17930016  0.26425817    -0.08500
C445        C  0.50778705  0.15346004  0.25981284     0.61900
H446        H  0.51330557  0.19536214  0.23230828     0.12500
H447        H  0.08299603  0.21652994  0.30177911     0.12600
C448        C  0.08482601  0.25748836  0.28218042     0.62100
F449        F  0.48710811  0.15268456  0.24652742    -0.23100
F450        F  0.99980643  0.13883468  0.28664782    -0.20400
F451        F  0.51455322  0.14019966  0.24123858    -0.20100
F452        F  0.08705024  0.25922745  0.31390131    -0.20100
F453        F  0.10751210  0.26299353  0.27017504    -0.20500
F454        F  0.07975393  0.27546707  0.27196691    -0.23100
C455        C  0.19881023  0.01341800  0.09494580    -0.06000
C456        C  0.21640105  0.02352368  0.11926187    -0.02700
C457        C  0.22678072  0.04942958  0.12671624    -0.08600
C458        C  0.22035498  0.06422945  0.10840109    -0.06000
C459        C  0.20428115  0.05454664  0.08284875    -0.00100
C460        C  0.19253655  0.02843949  0.07657556    -0.08500
C461        C  0.17444004  0.01670099  0.04973865     0.61900
H462        H  0.19046784  0.99362823  0.08979309     0.12500
H463        H  0.22882340  0.08412337  0.11308161     0.12600
C464        C  0.24652483  0.55950914  0.14986528     0.62100
F465        F  0.16575783  0.99124636  0.04710484    -0.23100
F466        F  0.18628323  0.02864490  0.02260080    -0.20400
F467        F  0.15393136  0.01917802  0.05381557    -0.20100
F468        F  0.25617709  0.58527503  0.15043364    -0.20100
F469        F  0.26609983  0.05965422  0.14780064    -0.20500
F470        F  0.23500111  0.05164868  0.18055395    -0.23100
C471        C  0.34926488  0.06053820  0.11528386    -0.06000
C472        C  0.35305585  0.05058693  0.08869892     0.00000
C473        C  0.33808846  0.02441252  0.08340617    -0.08600
C474        C  0.31728023  0.00980367  0.10251440    -0.06000
C475        C  0.31149030  0.02042815  0.12707309    -0.00100
C476        C  0.32923555  0.04576590  0.13532933    -0.08500
C477        C  0.32718031  0.05772291  0.16437952     0.61900
H478        H  0.36161036  0.08049338  0.11946179     0.12500
H479        H  0.30470836  0.99004206  0.09745260     0.12600
C480        C  0.34338131  0.01220177  0.05707277     0.62100
F481        F  0.34793955  0.08162049  0.16878198    -0.23100
F482        F  0.32538761  0.04302823  0.18971385    -0.20400
F483        F  0.30508878  0.55622379  0.16656642    -0.20100
F484        F  0.36709606  0.01591290  0.06074217    -0.20100
F485        F  0.34204773  0.02273297  0.02930591    -0.20500
F486        F  0.32642136  0.98644444  0.05608408    -0.23100
C487        C  0.14410999  0.47252262  0.25747898    -0.06000
C488        C  0.13606618  0.45633253  0.28345703     0.00000
C489        C  0.15022091  0.44530928  0.29319586    -0.08600
C490        C  0.17117588  0.45027809  0.27592622    -0.06000
C491        C  0.17847618  0.46547744  0.24933080    -0.00100
C492        C  0.16513977  0.47731704  0.24017472    -0.08500
C493        C  0.17070705  0.99211117  0.21041018     0.61900
H494        H  0.13329438  0.48089627  0.25029485     0.12500
H495        H  0.18173251  0.44147275  0.28246374     0.12600
C496        C  0.14267368  0.42710715  0.32053200     0.62100
F497        F  0.15272950  0.99815642  0.20350493    -0.23100
F498        F  0.17119166  0.97797072  0.18655398    -0.20400
F499        F  0.19366477  0.01433829  0.21246907    -0.20100
F500        F  0.11823785  0.40730463  0.31678698    -0.20100
F501        F  0.14484706  0.43962957  0.34742582    -0.20500
F502        F  0.15769769  0.41687376  0.32366713    -0.23100
C503        C  0.28798010  0.44052011  0.29781129    -0.06000
C504        C  0.31327829  0.45404264  0.28902471     0.00000
C505        C  0.32136499  0.47384282  0.26679386    -0.08600
C506        C  0.30325340  0.47741640  0.25181241    -0.06000
C507        C  0.27762348  0.46213414  0.25855059    -0.00100
C508        C  0.26998473  0.44434233  0.28318781    -0.08500
C509        C  0.24298084  0.42918805  0.29407325     0.61900
H510        H  0.28201378  0.42585984  0.31532454     0.12500
H511        H  0.31213067  0.99387599  0.23264608     0.12600
C512        C  0.34884118  0.49120129  0.25874424     0.62100
F513        F  0.24123249  0.41860801  0.32297313    -0.23100
F514        F  0.22859632  0.40980290  0.27396989    -0.20400
F515        F  0.23326363  0.44468921  0.29587953    -0.20100
F516        F  0.35698411  0.47844040  0.24144180    -0.20100
F517        F  0.36565120  0.99969483  0.28399091    -0.20500
F518        F  0.35602008  0.01273581  0.24050175    -0.23100
C519        C  0.13079613  0.39498072  0.14913597    -0.06000
C520        C  0.15045530  0.39770553  0.13102722     0.00000
C521        C  0.14538205  0.37993758  0.10776910    -0.08600
C522        C  0.12134241  0.35806885  0.10644652    -0.06000
C523        C  0.10313159  0.35361371  0.12816399    -0.00100
C524        C  0.10687371  0.37328293  0.14755510    -0.08500
C525        C  0.08674806  0.37093799  0.16882863     0.61900
H526        H  0.13462709  0.40902952  0.16626916     0.12500
H527        H  0.11782468  0.34283978  0.09142676     0.12600
C528        C  0.16581745  0.38262912  0.08678233     0.62100
F529        F  0.08544560  0.39248124  0.16628983    -0.23100
F530        F  0.09266834  0.36828930  0.19891325    -0.20400
F531        F  0.06330403  0.35050735  0.16165873    -0.20100
F532        F  0.18462080  0.38268367  0.10410272    -0.20100
F533        F  0.17570751  0.40496472  0.07008909    -0.20500
F534        F  0.15677211  0.36303985  0.06611955    -0.23100
C535        C  0.32317412  0.28105084  0.13086613    -0.06000
C536        C  0.30978860  0.29219547  0.11981159     0.00000
C537        C  0.31926016  0.30871574  0.09369809    -0.08600
C538        C  0.33994306  0.31112224  0.07785815    -0.06000
C539        C  0.35157139  0.29790878  0.08726205    -0.00100
C540        C  0.34398786  0.28370346  0.11513550    -0.08500
C541        C  0.35800129  0.27165610  0.12848287     0.61900
H542        H  0.31644946  0.26905716  0.15120198     0.12500
H543        H  0.34627333  0.32227064  0.05680392     0.12600
C544        C  0.30766135  0.32362913  0.08200932     0.62100
F545        F  0.35016154  0.26233022  0.15800327    -0.23100
F546        F  0.38338895  0.28946405  0.12980186    -0.20400
F547        F  0.35410254  0.25183860  0.11045231    -0.20100
F548        F  0.30335464  0.33485704  0.10635362    -0.20100
F549        F  0.28534432  0.30781481  0.06685573    -0.20500
F550        F  0.32329859  0.34261425  0.06159681    -0.23100
C551        C  0.21094139  0.19878615  0.08074963    -0.06000
C552        C  0.21688813  0.19937534  0.11211827     0.00000
C553        C  0.21903068  0.17904964  0.12471678    -0.08600
C554        C  0.21393848  0.15879092  0.10550274    -0.06000
C555        C  0.20889581  0.15896826  0.07404746    -0.00100
C556        C  0.20831156  0.17984054  0.06128749    -0.08500
C557        C  0.20615442  0.18414326  0.02735352     0.61900
H558        H  0.21003558  0.21436235  0.07047741     0.12500
H559        H  0.21539158  0.14318477  0.11447296     0.12600
C560        C  0.22805737  0.17888032  0.15742087     0.62100
F561        F  0.18517160  0.18585753  0.02258627    -0.23100
F562        F  0.20454295  0.16531149  0.00933298    -0.20400
F563        F  0.22694508  0.20675062  0.01816380    -0.20100
F564        F  0.21326889  0.18153785  0.17833599    -0.20100
F565        F  0.25270926  0.19834664  0.16068840    -0.20500
F566        F  0.22713222  0.15658393  0.16468238    -0.23100
C567        C  0.27210944  0.32191677  0.28080606    -0.06000
C568        C  0.28173453  0.31561929  0.25599729     0.00000
C569        C  0.30786169  0.32935890  0.25064964    -0.08600
C570        C  0.32322524  0.35041700  0.26896431    -0.06000
C571        C  0.31329392  0.35838279  0.29184126    -0.00100
C572        C  0.28732255  0.34309215  0.29901091    -0.08500
C573        C  0.27507800  0.34944937  0.32436863     0.61900
H574        H  0.25207540  0.31075777  0.28465035     0.12500
H575        H  0.34313965  0.36166369  0.26442235     0.12600
C576        C  0.31930184  0.32294943  0.22448881     0.62100
F577        F  0.27789452  0.37278312  0.31848905    -0.23100
F578        F  0.28588781  0.34964496  0.35245090    -0.20400
F579        F  0.24965077  0.33193452  0.32663954    -0.20100
F580        F  0.34497532  0.33939857  0.22272017    -0.20100
F581        F  0.30881814  0.32429144  0.19678164    -0.20500
F582        F  0.31489734  0.29884576  0.22890236    -0.23100
C583        C  0.13720536  0.17613452  0.24628551    -0.06000
C584        C  0.13723968  0.17772542  0.27864522     0.00000
C585        C  0.16009263  0.19551506  0.29368073    -0.08600
C586        C  0.18100238  0.21225250  0.27553950    -0.06000
C587        C  0.18006647  0.21141550  0.24338081    -0.00100
C588        C  0.15814898  0.19271174  0.22843860    -0.08500
C589        C  0.15675351  0.19077975  0.19360183     0.61900
H590        H  0.12021766  0.16235175  0.23462267     0.12500
H591        H  0.19803683  0.22695143  0.28629676     0.12600
C592        C  0.16274804  0.19746539  0.32847696     0.62100
F593        F  0.13339087  0.17195546  0.18337247    -0.23100
F594        F  0.17426997  0.18543372  0.18359599    -0.20400
F595        F  0.16177045  0.21333313  0.18038195    -0.20100
F596        F  0.15479540  0.17392680  0.34138055    -0.20100
F597        F  0.14873260  0.20687724  0.33983341    -0.20500
F598        F  0.18739062  0.21347111  0.33759406    -0.23100
C599        C  0.26008381  0.37000820  0.16915775    -0.06000
C600        C  0.25229370  0.35535986  0.14249679     0.00000
C601        C  0.24810328  0.36565160  0.11523909    -0.08600
C602        C  0.24508024  0.38661218  0.11790485    -0.06000
C603        C  0.24846640  0.39845868  0.14633204    -0.00100
C604        C  0.25922185  0.39202409  0.17114667    -0.08500
C605        C  0.26852242  0.40724296  0.20044725     0.61900
H606        H  0.26512683  0.36309219  0.18942943     0.12500
H607        H  0.23892712  0.39304117  0.09824833     0.12600
C608        C  0.24775385  0.35536135  0.08377459     0.62100
F609        F  0.28623343  0.40364370  0.21528666    -0.23100
F610        F  0.24874124  0.39979701  0.22025328    -0.20400
F611        F  0.27971376  0.43276005  0.19377031    -0.20100
F612        F  0.22856937  0.33059286  0.08126024    -0.20100
F613        F  0.27028279  0.35672862  0.07930049    -0.20500
F614        F  0.24476305  0.36915534  0.06049445    -0.23100
C615        C  0.13293381  0.24212308  0.14813257    -0.06000
C616        C  0.15364268  0.26105560  0.13176700     0.00000
C617        C  0.15025254  0.27754864  0.11197533    -0.08600
C618        C  0.12699129  0.27607569  0.11168003    -0.06000
C619        C  0.10756268  0.25929450  0.13116580    -0.00100
C620        C  0.10986001  0.24090384  0.14816746    -0.08500
C621        C  0.08892127  0.22006343  0.16727970     0.61900
H622        H  0.13520819  0.22922291  0.16277433     0.12500
H623        H  0.12477969  0.28995708  0.09889276     0.12600
C624        C  0.17183142  0.29860329  0.09419287     0.62100
F625        F  0.08356329  0.19695775  0.15642484    -0.23100
F626        F  0.06707996  0.22057685  0.16607028    -0.20400
F627        F  0.09659420  0.22211368  0.19766850    -0.20100
F628        F  0.18180072  0.28861705  0.07499845    -0.20100
F629        F  0.18983998  0.31488198  0.11480765    -0.20500
F630        F  0.16449759  0.31232886  0.07614320    -0.23100
Fe631      Fe  0.21782610  0.28535978  0.69599115     1.65800
Fe632      Fe  0.24942999  0.25442423  0.68879918     1.73200
Fe633      Fe  0.23295121  0.27619171  0.62427420     1.54400
O634        O  0.19526627  0.26614235  0.62221226    -0.81900
O635        O  0.28129586  0.27395648  0.66187324    -0.80200
O636        O  0.18630591  0.27201125  0.66947162    -0.84400
O637        O  0.23476101  0.31938060  0.67306981    -0.79200
O638        O  0.22203678  0.23867102  0.61679102    -0.81000
O639        O  0.26846633  0.28170760  0.72198390    -0.83700
C640        C  0.24386353  0.32822938  0.64671419     0.97000
C641        C  0.18030418  0.26625845  0.64164006     1.04500
O642        O  0.23332816  0.27186220  0.66957505    -1.12700
O643        O  0.21895586  0.23215205  0.71767421    -0.75200
O644        O  0.19882963  0.25286405  0.72202917    -0.78600
O645        O  0.24476125  0.31458217  0.62596954    -0.79300
C646        C  0.20105504  0.23406376  0.72788937     0.95900
O647        O  0.24723181  0.30110600  0.72597798    -0.77300
O648        O  0.23366220  0.22521991  0.65780998    -0.82500
C649        C  0.28631889  0.28483349  0.63557966     0.98500
C650        C  0.22466019  0.22186778  0.63080614     1.04500
O651        O  0.27020957  0.28699829  0.61990935    -0.78100
C652        C  0.26535882  0.29847514  0.73343879     1.02800
Fe653      Fe  0.21023334  0.42824158  0.69519055     1.65800
Fe654      Fe  0.24872740  0.99585037  0.69062332     1.73200
Fe655      Fe  0.22940789  0.45740099  0.62471675     1.54400
O656        O  0.23959148  0.43022688  0.62712384    -0.81900
O657        O  0.23428753  0.01038814  0.65905682    -0.80200
O658        O  0.22708938  0.41204910  0.67330811    -0.84400
O659        O  0.17993083  0.41226007  0.66608084    -0.79200
O660        O  0.26685087  0.48381991  0.62352017    -0.81000
O661        O  0.21873512  0.98769307  0.71939323    -0.83700
C662        C  0.17548744  0.41461444  0.63809416     0.97000
C663        C  0.23800406  0.41478773  0.64796850     1.04500
O664        O  0.22798413  0.45940794  0.67013409    -1.12700
O665        O  0.26559965  0.98507531  0.72404909    -0.75200
O666        O  0.23836116  0.44007629  0.72743148    -0.78600
O667        O  0.19195300  0.43048550  0.61983606    -0.79300
C668        C  0.25668512  0.46101939  0.73604670     0.95900
O669        O  0.19150233  0.44087823  0.72025163    -0.77300
O670        O  0.28105568  0.00897299  0.66462712    -0.82500
C671        C  0.22559271  0.00549768  0.63181048     0.98500
C672        C  0.28601623  0.00327347  0.63893187     1.04500
O673        O  0.22002200  0.48469227  0.61649430    -0.78100
C674        C  0.19437078  0.46209297  0.72639817     1.02800
Fe675      Fe  0.07569544  0.29150875  0.69093201     1.65800
Fe676      Fe  0.51242727  0.25513812  0.68770977     1.73200
Fe677      Fe  0.04608714  0.27226368  0.62111034     1.54400
O678        O  0.07217125  0.31045571  0.61712423    -0.81900
O679        O  0.49944149  0.22357952  0.66048668    -0.80200
O680        O  0.08806228  0.32313823  0.66418011    -0.84400
O681        O  0.09441876  0.27896946  0.66560644    -0.79200
O682        O  0.01825296  0.28058966  0.61506903    -0.81000
O683        O  0.02480739  0.23962558  0.72159646    -0.83700
C684        C  0.09136111  0.26788190  0.64036741     0.97000
C685        C  0.08600220  0.32752503  0.63607016     1.04500
O686        O  0.04458717  0.27269388  0.66665424    -1.12700
O687        O  0.02013971  0.28472792  0.71522583    -0.75200
O688        O  0.06163934  0.30652347  0.72022594    -0.78600
O689        O  0.07389376  0.26345471  0.62146462    -0.79300
C690        C  0.04024073  0.30260849  0.72660074     0.95900
O691        O  0.06636293  0.26187691  0.72014718    -0.77300
O692        O  0.49654626  0.26952262  0.65890778    -0.82500
C693        C  0.50381042  0.21962047  0.63337625     0.98500
C694        C  0.50064597  0.27930678  0.63222566     1.04500
O695        O  0.02008238  0.23423910  0.61870557    -0.78100
C696        C  0.04605583  0.24380469  0.73061676     1.02800
Fe697      Fe  0.24100600  0.12219481  0.52087199     1.65800
Fe698      Fe  0.17745620  0.08977401  0.51522868     1.73200
Fe699      Fe  0.21247789  0.10635378  0.95201881     1.54400
O700        O  0.23545436  0.14544575  0.95066923    -0.81900
O701        O  0.16117921  0.05998429  0.98661441    -0.80200
O702        O  0.25754354  0.15353725  0.49298744    -0.84400
O703        O  0.25669715  0.10542268  0.49807421    -0.79200
O704        O  0.18204767  0.11044922  0.94324381    -0.81000
O705        O  0.18651925  0.06922568  0.54593244    -0.83700
C706        C  0.25551509  0.09816977  0.97451824     0.97000
C707        C  0.25330748  0.15960098  0.96874436     1.04500
O708        O  0.21048324  0.10635427  0.49526243    -1.12700
O709        O  0.18788988  0.11904177  0.54666568    -0.75200
O710        O  0.22961672  0.14127720  0.54752480    -0.78600
O711        O  0.24331288  0.10159879  0.95326405    -0.79300
C712        C  0.20871965  0.13781492  0.55566679     0.95900
O713        O  0.22786023  0.09260805  0.55150778    -0.77300
O714        O  0.16408132  0.10874596  0.98767270    -0.82500
C715        C  0.16797766  0.05335566  0.96288597     0.98500
C716        C  0.16586624  0.11203182  0.95870181     1.04500
O717        O  0.18898689  0.06759525  0.94994892    -0.78100
C718        C  0.20693123  0.07306658  0.55784697     1.02800
Fe719      Fe  0.38339119  0.11791078  0.52886091     1.65800
Fe720      Fe  0.41569344  0.08800802  0.52134094     1.73200
Fe721      Fe  0.39556839  0.10658619  0.95718743     1.54400
O722        O  0.35790504  0.09567426  0.95726751    -0.81900
O723        O  0.44544973  0.10609826  0.99234701    -0.80200
O724        O  0.35019375  0.09997104  0.50484631    -0.84400
O725        O  0.39624136  0.15018912  0.50278143    -0.79200
O726        O  0.38444436  0.06928252  0.95103818    -0.81000
O727        O  0.43398391  0.11548298  0.55496982    -0.83700
C728        C  0.40471774  0.15809281  0.97706031     0.97000
C729        C  0.34273615  0.09390146  0.97769870     1.04500
O730        O  0.39898600  0.10466629  0.50241375    -1.12700
O731        O  0.38612105  0.06535441  0.55036002    -0.75200
O732        O  0.36838645  0.08774032  0.55894036    -0.78600
O733        O  0.40653950  0.14441765  0.95727426    -0.79300
C734        C  0.37027024  0.06864301  0.56390193     0.95900
O735        O  0.41481394  0.13728260  0.55563724    -0.77300
O736        O  0.39743600  0.05701614  0.99193266    -0.82500
C737        C  0.44956646  0.11612388  0.96572130     0.98500
C738        C  0.38677126  0.05273741  0.96568012     1.04500
O739        O  0.43276701  0.11776908  0.95082376    -0.78100
C740        C  0.43191428  0.13349393  0.56477374     1.02800
Fe741      Fe  0.38023948  0.26257191  0.52939960     1.65800
Fe742      Fe  0.41609302  0.32665619  0.52294566     1.73200
Fe743      Fe  0.39414263  0.29041426  0.95703257     1.54400
O744        O  0.40127945  0.26127431  0.95538202    -0.81900
O745        O  0.39848291  0.34098045  0.99521187    -0.80200
O746        O  0.39221777  0.24377266  0.50357242    -0.84400
O747        O  0.34723627  0.24805687  0.50526775    -0.79200
O748        O  0.43193927  0.31497892  0.95152378    -0.81000
O749        O  0.38790581  0.31884271  0.55435274    -0.83700
C750        C  0.34099558  0.24976806  0.97709194     0.97000
C751        C  0.40126728  0.24602233  0.97525324     1.04500
O752        O  0.39694030  0.29318371  0.50336584    -1.12700
O753        O  0.43401355  0.31570457  0.55385363    -0.75200
O754        O  0.41146044  0.27380873  0.55605874    -0.78600
O755        O  0.35586520  0.26543298  0.95722410    -0.79300
C756        C  0.43052935  0.29475207  0.56345947     0.95900
O757        O  0.36613221  0.27708558  0.55926227    -0.77300
O758        O  0.44538502  0.33959624  0.99246123    -0.82500
C759        C  0.38932165  0.33704787  0.96829659     0.98500
C760        C  0.44927847  0.33300398  0.96662237     1.04500
O761        O  0.38691074  0.31922188  0.95188741    -0.78100
C762        C  0.37036770  0.29857406  0.56649270     1.02800
Fe763      Fe  0.40152648  0.45472325  0.86493812     1.65800
Fe764      Fe  0.33773607  0.42050662  0.85961880     1.73200
Fe765      Fe  0.37378606  0.43965546  0.79390349     1.54400
O766        O  0.39920345  0.47821464  0.79259126    -0.81900
O767        O  0.32400394  0.39004007  0.83103926    -0.80200
O768        O  0.41661375  0.48737130  0.83934084    -0.84400
O769        O  0.41913738  0.44074876  0.84017824    -0.79200
O770        O  0.34578427  0.44784343  0.78793867    -0.81000
O771        O  0.34770890  0.40095252  0.89016703    -0.83700
C772        C  0.41747266  0.43199048  0.81365964     0.97000
C773        C  0.41370732  0.49389151  0.81251663     1.04500
O774        O  0.37094959  0.43827549  0.83944597    -1.12700
O775        O  0.34673176  0.44868989  0.89104384    -0.75200
O776        O  0.38830092  0.47062583  0.89387364    -0.78600
O777        O  0.40207905  0.43106257  0.79345504    -0.79300
C778        C  0.36714998  0.46643200  0.90200629     0.95900
O779        O  0.38934890  0.42388481  0.89315609    -0.77300
O780        O  0.32380660  0.43759131  0.83116334    -0.82500
C781        C  0.32955857  0.38524328  0.80525078     0.98500
C782        C  0.32829168  0.44651969  0.80386839     1.04500
O783        O  0.34823198  0.40163645  0.78976285    -0.78100
C784        C  0.36848000  0.40460184  0.90039560     1.02800
Fe785      Fe  0.04171651  0.44333444  0.86328452     1.65800
Fe786      Fe  0.07789755  0.41899020  0.85339685     1.73200
Fe787      Fe  0.05470936  0.43504655  0.79187536     1.54400
O788        O  0.01796962  0.42770451  0.79495282    -0.81900
O789        O  0.10845475  0.44291157  0.82672699    -0.80200
O790        O  0.00762936  0.41852947  0.84398035    -0.84400
O791        O  0.04601471  0.47134440  0.83353345    -0.79200
O792        O  0.04017163  0.39730442  0.78789121    -0.81000
O793        O  0.09358744  0.44626013  0.88832216    -0.83700
C794        C  0.05848622  0.48223299  0.80949964     0.97000
C795        C  0.00167757  0.41963845  0.81618965     1.04500
O796        O  0.05837112  0.43252126  0.83618676    -1.12700
O797        O  0.04869152  0.39324019  0.88130602    -0.75200
O798        O  0.03446995  0.41707350  0.89760171    -0.78600
O799        O  0.06878252  0.47325904  0.79364347    -0.79300
C800        C  0.03524871  0.39712504  0.89919476     0.95900
O801        O  0.07506191  0.46855846  0.88301637    -0.77300
O802        O  0.06474200  0.39113124  0.81974243    -0.82500
C803        C  0.10948754  0.44577864  0.79773581     0.98500
C804        C  0.04925660  0.38428127  0.79715477     1.04500
O805        O  0.09057460  0.44221278  0.78192602    -0.78100
C806        C  0.09201991  0.46546885  0.89449273     1.02800
Fe807      Fe  0.03874304  0.09233284  0.85699255     1.65800
Fe808      Fe  0.07868533  0.15592266  0.85281993     1.73200
Fe809      Fe  0.05656309  0.12132376  0.78648502     1.54400
O810        O  0.06275421  0.09154148  0.78515110    -0.81900
O811        O  0.06454876  0.17302185  0.82557328    -0.80200
O812        O  0.04655908  0.07115960  0.82937343    -0.84400
O813        O  0.00659654  0.08236506  0.83295382    -0.79200
O814        O  0.09469194  0.14596946  0.78099471    -0.81000
O815        O  0.05130129  0.14941584  0.88465335    -0.83700
C816        C  0.00137227  0.08388771  0.80495899     0.97000
C817        C  0.05583880  0.07278185  0.80323112     1.04500
O818        O  0.05810863  0.12326271  0.83201126    -1.12700
O819        O  0.09518892  0.14159413  0.88165781    -0.75200
O820        O  0.06956204  0.09969513  0.88267975    -0.78600
O821        O  0.01801871  0.09676983  0.78503587    -0.79300
C822        C  0.09001473  0.11954268  0.88958475     0.95900
O823        O  0.02700230  0.10786032  0.88871299    -0.77300
O824        O  0.10886420  0.16832111  0.82349148    -0.82500
C825        C  0.05433109  0.16893161  0.79915192     0.98500
C826        C  0.11237604  0.16355049  0.79646918     1.04500
O827        O  0.05008164  0.15052516  0.78255641    -0.78100
C828        C  0.03260795  0.12977251  0.89602192     1.02800
C829        C  0.03901611  0.00585606  0.79415167    -0.06000
C830        C  0.06267513  0.00867098  0.79557965     0.00000
C831        C  0.08440300  0.03299217  0.79325027    -0.08600
C832        C  0.08145035  0.05408353  0.79207281    -0.06000
C833        C  0.05757734  0.05108046  0.79414952    -0.00100
C834        C  0.03590370  0.02643859  0.79400389    -0.08500
C835        C  0.00893740  0.02012349  0.79520292     0.61900
H836        H  0.01788708  0.48264602  0.79866907     0.12500
H837        H  0.09781288  0.07304152  0.79212520     0.12600
C838        C  0.11026606  0.03648740  0.79394997     0.62100
F839        F  0.99627575  0.00681639  0.76919466    -0.23100
F840        F  0.00677418  0.04097481  0.79657683    -0.20400
F841        F  0.99735545  0.00516879  0.82087249    -0.20100
F842        F  0.11275917  0.02434819  0.76919939    -0.20100
F843        F  0.11358602  0.02635410  0.82095711    -0.20500
F844        F  0.12897521  0.06172639  0.79224711    -0.23100
C845        C  0.44319349  0.02372685  0.77327185    -0.06000
C846        C  0.42826714  0.01592402  0.79965193     0.00000
C847        C  0.43194044  0.03404757  0.82160779    -0.08600
C848        C  0.45443765  0.05732619  0.82107117    -0.06000
C849        C  0.47228936  0.06332466  0.79809649    -0.00100
C850        C  0.46496381  0.04798691  0.77149263    -0.08500
C851        C  0.98224649  0.05947621  0.74051230     0.61900
H852        H  0.43918680  0.01008368  0.75554775     0.12500
H853        H  0.45898132  0.06995987  0.84022733     0.12600
C854        C  0.41377174  0.02855181  0.84754173     0.62100
F855        F  0.96932475  0.04244998  0.71726946    -0.23100
F856        F  0.00471300  0.06059435  0.74508665    -0.20400
F857        F  0.98700742  0.08288156  0.73063594    -0.20100
F858        F  0.42312510  0.02447193  0.87463253    -0.20100
F859        F  0.39032229  0.00768499  0.84161304    -0.20500
F860        F  0.41085338  0.04896464  0.85119810    -0.23100
C861        C  0.45035168  0.43169040  0.78183438    -0.06000
C862        C  0.43433629  0.42238819  0.80730598     0.00000
C863        C  0.43775291  0.40742673  0.82953694    -0.08600
C864        C  0.46003470  0.40713016  0.82937841    -0.06000
C865        C  0.47808710  0.41933196  0.80614420    -0.00100
C866        C  0.47171498  0.42936579  0.78012945    -0.08500
C867        C  0.98308350  0.42975119  0.75339289     0.61900
H868        H  0.44682486  0.44200040  0.76409826     0.12500
H869        H  0.46358192  0.39766774  0.84824795     0.12600
C870        C  0.41862528  0.39194592  0.85420772     0.62100
F871        F  0.47530511  0.44335982  0.72750167    -0.23100
F872        F  0.98699683  0.41073250  0.74485849    -0.20400
F873        F  0.00586817  0.45193366  0.75690747    -0.20100
F874        F  0.39549739  0.38904593  0.84798526    -0.20100
F875        F  0.42724525  0.40339556  0.88238334    -0.20500
F876        F  0.41516294  0.36803946  0.85589601    -0.23100
C877        C  0.36136412  0.34410972  0.93402410    -0.06000
C878        C  0.38162274  0.35422196  0.95492801     0.00000
C879        C  0.39524345  0.38060659  0.96037645    -0.08600
C880        C  0.38846617  0.39583039  0.94386944    -0.06000
C881        C  0.36944081  0.38600386  0.92140303    -0.00100
C882        C  0.35507388  0.35955945  0.91685669    -0.08500
C883        C  0.33409782  0.34772396  0.89308534     0.61900
H884        H  0.35096838  0.32391635  0.93046534     0.12500
H885        H  0.39891503  0.41603989  0.94735223     0.12600
C886        C  0.41784525  0.39316800  0.98192113     0.62100
F887        F  0.32342300  0.32183182  0.89166114    -0.23100
F888        F  0.34331210  0.35781835  0.86424875    -0.20400
F889        F  0.31541785  0.35228403  0.90058387    -0.20100
F890        F  0.43513352  0.38676499  0.97384668    -0.20100
F891        F  0.41046344  0.38533087  0.51234087    -0.20500
F892        F  0.42984259  0.41924292  0.98066989    -0.23100
C893        C  0.00157807  0.35330182  0.90942710    -0.06000
C894        C  0.01803657  0.37733093  0.92116336     0.00000
C895        C  0.01356495  0.38326787  0.95071531    -0.08600
C896        C  0.49111439  0.37228695  0.96388259    -0.06000
C897        C  0.47479746  0.34784681  0.95286533    -0.00100
C898        C  0.48311843  0.33899015  0.92848184    -0.08500
C899        C  0.46920977  0.31153925  0.91885867     0.61900
H900        H  0.00559872  0.34879434  0.88714361     0.12500
H901        H  0.48592098  0.37882584  0.98368199     0.12600
C902        C  0.03235449  0.40670028  0.96812185     0.62100
F903        F  0.48382082  0.30652970  0.90023443    -0.23100
F904        F  0.44772087  0.30578318  0.90257295    -0.20400
F905        F  0.46301365  0.29599370  0.94461749    -0.20100
F906        F  0.02254161  0.42190131  0.97222226    -0.20100
F907        F  0.05511672  0.42056326  0.95330067    -0.20500
F908        F  0.03688812  0.39955974  0.99668375    -0.23100
C909        C  0.47653722  0.13308740  0.91918860    -0.06000
C910        C  0.47419227  0.12487400  0.95015086     0.00000
C911        C  0.49435653  0.12331364  0.96375414    -0.08600
C912        C  0.00926978  0.11706971  0.94487095    -0.06000
C913        C  0.01554871  0.13162004  0.91774069    -0.00100
C914        C  0.49652633  0.13705500  0.90061417    -0.08500
C915        C  0.49692902  0.14375897  0.86672262     0.61900
H916        H  0.46179492  0.13510438  0.90885283     0.12500
H917        H  0.01994635  0.10831819  0.95079306     0.12600
C918        C  0.49524319  0.11743327  0.99771339     0.62100
F919        F  0.47729094  0.14708064  0.85872011    -0.23100
F920        F  0.00686492  0.14511079  0.85529727    -0.20400
F921        F  0.03195030  0.18022009  0.88241531    -0.20100
F922        F  0.47705644  0.09261982  0.00421544    -0.20100
F923        F  0.48510361  0.10679382  0.51575697    -0.20500
F924        F  0.99903011  0.08682114  0.99540766    -0.23100
C925        C  0.39013020  0.01488956  0.96050129    -0.06000
C926        C  0.37834151  0.02800461  0.95082774     0.00000
C927        C  0.36045498  0.01793675  0.92629489    -0.08600
C928        C  0.35324602  0.49549462  0.91655566    -0.06000
C929        C  0.36682701  0.48390818  0.92417280    -0.00100
C930        C  0.38192371  0.49121522  0.95106675    -0.08500
C931        C  0.39363823  0.47656133  0.96335332     0.61900
H932        H  0.40355649  0.02226948  0.97927744     0.12500
H933        H  0.34097720  0.48898824  0.89659214     0.12600
C934        C  0.34532388  0.02958987  0.91576907     0.62100
F935        F  0.40207866  0.48304896  0.99334833    -0.23100
F936        F  0.41380605  0.48150028  0.94546185    -0.20400
F937        F  0.37604351  0.45095078  0.96313612    -0.20100
F938        F  0.36064324  0.05225940  0.90057121    -0.20100
F939        F  0.33451925  0.03350412  0.94087610    -0.20500
F940        F  0.32619011  0.01406881  0.89570500    -0.23100
C941        C  0.39660062  0.18694215  0.94623337    -0.06000
C942        C  0.41122474  0.18397172  0.96881941     0.00000
C943        C  0.42776195  0.20467787  0.98734459    -0.08600
C944        C  0.42592435  0.22627088  0.98635239    -0.06000
C945        C  0.40861227  0.22781861  0.96689250    -0.00100
C946        C  0.39521846  0.20889940  0.94470487    -0.08500
C947        C  0.37848184  0.21123675  0.92091245     0.61900
H948        H  0.38459528  0.17109034  0.93164390     0.12500
H949        H  0.43671359  0.24137620  0.00243200     0.12600
C950        C  0.44685581  0.20371436  0.00845923     0.62100
F951        F  0.36725685  0.19076139  0.90147956    -0.23100
F952        F  0.39270147  0.23275279  0.90314816    -0.20400
F953        F  0.36139848  0.21124584  0.43434345    -0.20100
F954        F  0.46029943  0.19585364  0.99207221    -0.20100
F955        F  0.43500595  0.18713900  0.03271112    -0.20500
F956        F  0.46367583  0.22717920  0.02048409    -0.23100
C957        C  0.13568982  0.09974980  0.91575195    -0.06000
C958        C  0.14687880  0.11518104  0.94143162     0.00000
C959        C  0.13924199  0.13217452  0.94966105    -0.08600
C960        C  0.12018702  0.13254647  0.93251169    -0.06000
C961        C  0.10887409  0.11689170  0.90727066    -0.00100
C962        C  0.11687781  0.10037111  0.89830831    -0.08500
C963        C  0.10621265  0.08399166  0.87000490     0.61900
H964        H  0.14160019  0.08680499  0.90966387     0.12500
H965        H  0.11413733  0.14541890  0.93838422     0.12600
C966        C  0.15256994  0.15145434  0.97439528     0.62100
F967        F  0.11927465  0.07233373  0.86298435    -0.23100
F968        F  0.10758994  0.09868728  0.84486542    -0.20400
F969        F  0.08150235  0.06534231  0.87502678    -0.20100
F970        F  0.17741253  0.16653191  0.96613458    -0.20100
F971        F  0.15046482  0.13959683  0.00239867    -0.20500
F972        F  0.14286562  0.16687534  0.97773407    -0.23100
C973        C  0.12422896  0.02338643  0.94845573    -0.06000
C974        C  0.14914347  0.02925665  0.94805062     0.00000
C975        C  0.15500980  0.01347306  0.93165051    -0.08600
C976        C  0.13557797  0.49078305  0.91541572    -0.06000
C977        C  0.11077273  0.48549371  0.91517874    -0.00100
C978        C  0.10507343  0.00342365  0.93160409    -0.08500
C979        C  0.07837918  0.49587891  0.93540032     0.61900
H980        H  0.12008146  0.03579346  0.96068266     0.12500
H981        H  0.13987246  0.47912586  0.90174300     0.12600
C982        C  0.18149259  0.01846325  0.93061761     0.62100
F983        F  0.07708937  0.01457397  0.95402781    -0.23100
F984        F  0.06123430  0.47054219  0.94070565    -0.20400
F985        F  0.07398179  0.00713277  0.90369319    -0.20100
F986        F  0.19124151  0.02162501  0.96008646    -0.20100
F987        F  0.19649623  0.03994163  0.91318214    -0.20500
F988        F  0.18225162  0.49712984  0.91625602    -0.23100
C989        C  0.27390280  0.20186808  0.98955166    -0.06000
C990        C  0.26918186  0.18707089  0.96347028     0.00000
C991        C  0.28440055  0.19804693  0.93721707    -0.08600
C992        C  0.30740045  0.22100552  0.94091657    -0.06000
C993        C  0.31418576  0.23326673  0.96939770    -0.00100
C994        C  0.29581967  0.22539060  0.99249762    -0.08500
C995        C  0.29995416  0.23994330  0.02181737     0.61900
H996        H  0.26129471  0.19389541  0.00918160     0.12500
H997        H  0.32112468  0.22823876  0.92243679     0.12600
C998        C  0.27662790  0.18553776  0.90612989     0.62100
F999        F  0.27799515  0.23855749  0.03010303    -0.23100
F1000       F  0.31808450  0.26521776  0.01807340    -0.20400
F1001       F  0.30715316  0.23121629  0.54462271    -0.20100
F1002       F  0.25339944  0.18170066  0.89811113    -0.20100
F1003       F  0.27510896  0.16258241  0.90702455    -0.20500
F1004       F  0.29346726  0.20039816  0.88343749    -0.23100
C1005       C  0.27527402  0.07346419  0.98729730    -0.06000
C1006       C  0.27408867  0.09091176  0.96732766     0.00000
C1007       C  0.29333489  0.10416334  0.94529552    -0.08600
C1008       C  0.31423454  0.10124368  0.94612709    -0.06000
C1009       C  0.31685371  0.08652611  0.96902464    -0.00100
C1010       C  0.29628733  0.07087975  0.98838452    -0.08500
C1011       C  0.29606511  0.05203016  0.01136255     0.61900
H1012       H  0.26025625  0.06280820  0.00360375     0.12500
H1013       H  0.33606038  0.12213801  0.43447912     0.12600
C1014       C  0.29848403  0.13144448  0.42463672     0.62100
F1015       F  0.27451556  0.02871193  0.00710334    -0.23100
F1016       F  0.29616868  0.05989689  0.04092230    -0.20400
F1017       F  0.31633238  0.04903193  0.00812882    -0.20100
F1018       F  0.29685603  0.14810452  0.44364476    -0.20100
F1019       F  0.27244171  0.11246561  0.90499037    -0.20500
F1020       F  0.32046885  0.14479789  0.40805775    -0.23100
C1021       C  0.44016125  0.27420668  0.60554596    -0.06000
C1022       C  0.44925507  0.29409590  0.58396408     0.00000
C1023       C  0.47550659  0.31059693  0.58040352    -0.08600
C1024       C  0.49165699  0.30595287  0.59825085    -0.06000
C1025       C  0.48247155  0.28515441  0.61851354    -0.00100
C1026       C  0.45620610  0.26896939  0.62247716    -0.08500
C1027       C  0.44482716  0.24532575  0.64280222     0.61900
H1028       H  0.42007551  0.26206524  0.60817744     0.12500
H1029       H  0.51175264  0.31807768  0.59570970     0.12600
C1030       C  0.48659637  0.33206430  0.55681296     0.62100
F1031       F  0.41896981  0.23096538  0.64005512    -0.23100
F1032       F  0.45054408  0.25196107  0.67332637    -0.20400
F1033       F  0.45404763  0.23029984  0.63450234    -0.20100
F1034       F  0.48065680  0.34986750  0.56430217    -0.20100
F1035       F  0.47724858  0.32274638  0.52786632    -0.20500
F1036       F  0.51246473  0.34413509  0.55558939    -0.23100
C1037       C  0.46194522  0.18094383  0.62888207    -0.06000
C1038       C  0.48711537  0.19434201  0.61963736     0.00000
C1039       C  0.49468341  0.18435152  0.59584378    -0.08600
C1040       C  0.47613075  0.16322240  0.57961992    -0.06000
C1041       C  0.45065168  0.15175245  0.58674451    -0.00100
C1042       C  0.44354061  0.15971612  0.61294455    -0.08500
C1043       C  0.41665028  0.14596607  0.62417875     0.61900
H1044       H  0.45637282  0.18808983  0.64766039     0.12500
H1045       H  0.48129372  0.15641231  0.56005881     0.12600
C1046       C  0.02100733  0.18869015  0.59654706     0.62100
F1047       F  0.41501253  0.15341397  0.65340996    -0.23100
F1048       F  0.40722152  0.12027225  0.62535396    -0.20400
F1049       F  0.40199261  0.15089820  0.60463831    -0.20100
F1050       F  0.03609259  0.20170857  0.62134850    -0.20100
F1051       F  0.03020312  0.20355287  0.57028490    -0.20500
F1052       F  0.02229024  0.16727208  0.59311421    -0.23100
C1053       C  0.02885562  0.33428834  0.73488869    -0.06000
C1054       C  0.03901680  0.32051829  0.74700144     0.00000
C1055       C  0.04955279  0.32557926  0.77689454    -0.08600
C1056       C  0.05066626  0.34533927  0.79328070    -0.06000
C1057       C  0.04261572  0.36088510  0.78026413    -0.00100
C1058       C  0.03084673  0.35485808  0.75052683    -0.08500
C1059       C  0.02149790  0.37037846  0.73410079     0.61900
H1060       H  0.02076242  0.32972252  0.71197034     0.12500
H1061       H  0.05924351  0.34960879  0.81593060     0.12600
C1062       C  0.06058083  0.31091751  0.79096196     0.62100
F1063       F  0.01083737  0.36059979  0.70570602    -0.23100
F1064       F  0.04131169  0.39476910  0.72906943    -0.20400
F1065       F  0.00333570  0.37064650  0.75153726    -0.20100
F1066       F  0.08277158  0.31792244  0.77630265    -0.20100
F1067       F  0.04391326  0.28528319  0.78768746    -0.20500
F1068       F  0.06570358  0.31564502  0.82203049    -0.23100
C1069       C  0.02650497  0.20094841  0.75318233    -0.06000
C1070       C  0.04707084  0.22592517  0.75277004     0.00000
C1071       C  0.06835018  0.23238516  0.77171015    -0.08600
C1072       C  0.06891849  0.21307727  0.78814689    -0.06000
C1073       C  0.04940128  0.18788552  0.78604361    -0.00100
C1074       C  0.02728611  0.18167697  0.76953666    -0.08500
C1075       C  0.50751898  0.15104569  0.75356421     0.61900
H1076       H  0.51241837  0.19340781  0.72825991     0.12500
H1077       H  0.08552962  0.21732999  0.80127853     0.12600
C1078       C  0.09067355  0.25917094  0.77467382     0.62100
F1079       F  0.48749027  0.14985101  0.73780533    -0.23100
F1080       F  0.00056158  0.14283600  0.79607010    -0.20400
F1081       F  0.51676111  0.13955969  0.73569848    -0.20100
F1082       F  0.10635490  0.26131954  0.79886285    -0.20100
F1083       F  0.10470982  0.26654480  0.74807456    -0.20500
F1084       F  0.08238590  0.27539514  0.78021240    -0.23100
C1085       C  0.19871646  0.01256953  0.59479664    -0.06000
C1086       C  0.21867944  0.02280328  0.61617473    -0.02700
C1087       C  0.23247251  0.04939442  0.62059331    -0.08600
C1088       C  0.22638593  0.06455381  0.60257342    -0.06000
C1089       C  0.20752867  0.05454779  0.57986663    -0.00100
C1090       C  0.19280260  0.02794190  0.57654037    -0.08500
C1091       C  0.17166501  0.01577901  0.55307621     0.61900
H1092       H  0.18809057  0.99231779  0.59197609     0.12500
H1093       H  0.23710823  0.08481614  0.60533148     0.12600
C1094       C  0.24922536  0.55943698  0.64581787     0.62100
F1095       F  0.16006872  0.98973840  0.55344443    -0.23100
F1096       F  0.18096088  0.02445959  0.52384796    -0.20400
F1097       F  0.15368514  0.02161921  0.55951009    -0.20100
F1098       F  0.26041910  0.58544219  0.64545735    -0.20100
F1099       F  0.27177723  0.05538490  0.63596982    -0.20500
F1100       F  0.24654676  0.05543865  0.67267191    -0.23100
C1101       C  0.35035531  0.05828555  0.61481171    -0.06000
C1102       C  0.35269532  0.04966154  0.58623718     0.00000
C1103       C  0.33597690  0.02429598  0.57817583    -0.08600
C1104       C  0.31575877  0.00915153  0.59778663    -0.06000
C1105       C  0.31150148  0.01859444  0.62484662    -0.00100
C1106       C  0.33035799  0.04305559  0.63480109    -0.08500
C1107       C  0.32961906  0.05357750  0.66575020     0.61900
H1108       H  0.36384953  0.07765387  0.62072439     0.12500
H1109       H  0.30228624  0.99000623  0.59103119     0.12600
C1110       C  0.33851200  0.01372736  0.54814092     0.62100
F1111       F  0.35139515  0.07642381  0.67153339    -0.23100
F1112       F  0.32707266  0.03686663  0.68900880    -0.20400
F1113       F  0.30594930  0.55443007  0.66805790    -0.20100
F1114       F  0.36109812  0.01465675  0.54790114    -0.20100
F1115       F  0.33760628  0.02773891  0.52354703    -0.20500
F1116       F  0.31952567  0.98884917  0.54417707    -0.23100
C1117       C  0.13921310  0.46667150  0.75395276    -0.06000
C1118       C  0.13314010  0.45240100  0.78153803     0.00000
C1119       C  0.14845655  0.44273106  0.79140044    -0.08600
C1120       C  0.16909891  0.44784089  0.77338000    -0.06000
C1121       C  0.17488093  0.46172293  0.74579805    -0.00100
C1122       C  0.15982025  0.47143164  0.73576937    -0.08500
C1123       C  0.17831230  0.00128760  0.71872339     0.61900
H1124       H  0.12735046  0.47376283  0.74641803     0.12500
H1125       H  0.18074676  0.44033545  0.78029769     0.12600
C1126       C  0.14256874  0.42588542  0.81983745     0.62100
F1127       F  0.16375706  0.01208158  0.71631293    -0.23100
F1128       F  0.17757411  0.99073990  0.69072526    -0.20400
F1129       F  0.20266361  0.02027460  0.72511711    -0.20100
F1130       F  0.11819030  0.40558240  0.81819215    -0.20100
F1131       F  0.14571712  0.43957036  0.84598690    -0.20500
F1132       F  0.15816018  0.41628457  0.82265306    -0.23100
C1133       C  0.28607386  0.44090381  0.79878161    -0.06000
C1134       C  0.31129518  0.45411721  0.78948224     0.00000
C1135       C  0.31892869  0.47289144  0.76588666    -0.08600
C1136       C  0.30054287  0.47579392  0.75051573    -0.06000
C1137       C  0.27503995  0.46072199  0.75785661    -0.00100
C1138       C  0.26776215  0.44388079  0.78340912    -0.08500
C1139       C  0.24080240  0.42891934  0.79440471     0.61900
H1140       H  0.28039573  0.42703430  0.81721644     0.12500
H1141       H  0.30973147  0.99104526  0.73228849     0.12600
C1142       C  0.34613706  0.48965184  0.75633427     0.62100
F1143       F  0.23903926  0.41850465  0.82341433    -0.23100
F1144       F  0.22632543  0.40944972  0.77444421    -0.20400
F1145       F  0.23122580  0.44455946  0.79594281    -0.20100
F1146       F  0.35339716  0.47590509  0.73949641    -0.20100
F1147       F  0.36301872  0.99846524  0.78484408    -0.20500
F1148       F  0.35342068  0.01077606  0.74076495    -0.23100
C1149       C  0.13036004  0.39546304  0.64436058    -0.06000
C1150       C  0.14992169  0.39728696  0.62697041     0.00000
C1151       C  0.14475443  0.37891640  0.60456066    -0.08600
C1152       C  0.12060414  0.35723940  0.60364061    -0.06000
C1153       C  0.10251195  0.35352805  0.62516521    -0.00100
C1154       C  0.10639615  0.37385174  0.64340944    -0.08500
C1155       C  0.08641913  0.37250787  0.66405410     0.61900
H1156       H  0.13434524  0.41009108  0.66073687     0.12500
H1157       H  0.11696641  0.34154893  0.58936886     0.12600
C1158       C  0.16518587  0.38083804  0.58420540     0.62100
F1159       F  0.08476359  0.39367807  0.65900209    -0.23100
F1160       F  0.09284319  0.37189932  0.69452301    -0.20400
F1161       F  0.06303395  0.35146276  0.65836744    -0.20100
F1162       F  0.18374388  0.38096996  0.60215517    -0.20100
F1163       F  0.17545968  0.40285185  0.56679984    -0.20500
F1164       F  0.15601047  0.36078010  0.56422726    -0.23100
C1165       C  0.32334141  0.28036159  0.63087332    -0.06000
C1166       C  0.31128116  0.29327776  0.62161358     0.00000
C1167       C  0.32235059  0.31197402  0.59783659    -0.08600
C1168       C  0.34294613  0.31446377  0.58166178    -0.06000
C1169       C  0.35298877  0.29933030  0.58877367    -0.00100
C1170       C  0.34413863  0.28319703  0.61509883    -0.08500
C1171       C  0.35638155  0.26881688  0.62663867     0.61900
H1172       H  0.31547244  0.26672731  0.64958426     0.12500
H1173       H  0.35036258  0.32722373  0.56204320     0.12600
C1174       C  0.31274242  0.32931347  0.58925649     0.62100
F1175       F  0.34871829  0.25928027  0.65613368    -0.23100
F1176       F  0.38216555  0.28475150  0.62734380    -0.20400
F1177       F  0.35008603  0.24873545  0.60767003    -0.20100
F1178       F  0.30914580  0.33915255  0.61557963    -0.20100
F1179       F  0.29042041  0.31617436  0.57309174    -0.20500
F1180       F  0.32962572  0.34938869  0.57092610    -0.23100
C1181       C  0.20988218  0.19637176  0.58331074    -0.06000
C1182       C  0.21807851  0.19810739  0.61396911     0.00000
C1183       C  0.22214203  0.17870045  0.62559845    -0.08600
C1184       C  0.21672435  0.15828615  0.60633668    -0.06000
C1185       C  0.20933202  0.15734770  0.57553715    -0.00100
C1186       C  0.20690480  0.17737855  0.56359335    -0.08500
C1187       C  0.20285427  0.18100541  0.52999773     0.61900
H1188       H  0.20734215  0.21112193  0.57358704     0.12500
H1189       H  0.21958615  0.14339547  0.61465494     0.12600
C1190       C  0.23350740  0.17972328  0.65718859     0.62100
F1191       F  0.18108983  0.18154182  0.52700916    -0.23100
F1192       F  0.20127539  0.16238537  0.51162290    -0.20400
F1193       F  0.22264120  0.20390678  0.51965984    -0.20100
F1194       F  0.21852974  0.18004461  0.67990419    -0.20100
F1195       F  0.25723968  0.20105851  0.65905851    -0.20500
F1196       F  0.23588941  0.15903622  0.66296605    -0.23100
C1197       C  0.27291133  0.32261840  0.78030745    -0.06000
C1198       C  0.28327500  0.31647931  0.75614442     0.00000
C1199       C  0.30943900  0.33099620  0.75111909    -0.08600
C1200       C  0.32411726  0.35208382  0.76972488    -0.06000
C1201       C  0.31336095  0.35980546  0.79184087    -0.00100
C1202       C  0.28720866  0.34442523  0.79778599    -0.08500
C1203       C  0.27371736  0.35155097  0.82054352     0.61900
H1204       H  0.25287669  0.31098821  0.78382574     0.12500
H1205       H  0.34410026  0.36362159  0.76585619     0.12600
C1206       C  0.32161871  0.32548125  0.72496591     0.62100
F1207       F  0.27747213  0.37501103  0.81278134    -0.23100
F1208       F  0.28254108  0.35196097  0.85002892    -0.20400
F1209       F  0.24809111  0.33451627  0.82065557    -0.20100
F1210       F  0.34716042  0.34273165  0.72349505    -0.20100
F1211       F  0.31105588  0.32657073  0.69719771    -0.20500
F1212       F  0.31815025  0.30172752  0.72909985    -0.23100
C1213       C  0.13903970  0.17608702  0.74957973    -0.06000
C1214       C  0.13746082  0.17985820  0.78120006     0.00000
C1215       C  0.15905551  0.20007435  0.79596537    -0.08600
C1216       C  0.18025832  0.21650973  0.77800248    -0.06000
C1217       C  0.18090057  0.21328041  0.74632683    -0.00100
C1218       C  0.16026080  0.19252751  0.73192466    -0.08500
C1219       C  0.16047520  0.18836987  0.69766810     0.61900
H1220       H  0.12303027  0.16063507  0.73817935     0.12500
H1221       H  0.19625089  0.23279356  0.78832764     0.12600
C1222       C  0.16000721  0.20503395  0.83021178     0.62100
F1223       F  0.13847003  0.16731650  0.68775670    -0.23100
F1224       F  0.18004838  0.18496268  0.69125994    -0.20400
F1225       F  0.16360576  0.20911604  0.68121293    -0.20100
F1226       F  0.15346541  0.18323027  0.84685482    -0.20100
F1227       F  0.14382362  0.21319331  0.83687836    -0.20500
F1228       F  0.18377127  0.22347946  0.83979773    -0.23100
C1229       C  0.26042128  0.37069778  0.66739532    -0.06000
C1230       C  0.25245989  0.35539806  0.64123999     0.00000
C1231       C  0.24814178  0.36520561  0.61352938    -0.08600
C1232       C  0.24504173  0.38618501  0.61547036    -0.06000
C1233       C  0.24889753  0.39878758  0.64338338    -0.00100
C1234       C  0.25998919  0.39297571  0.66833679    -0.08500
C1235       C  0.27020612  0.40898622  0.69693191     0.61900
H1236       H  0.26588344  0.36451394  0.68798623     0.12500
H1237       H  0.23852596  0.39209025  0.59566536     0.12600
C1238       C  0.24810375  0.35477591  0.58224945     0.62100
F1239       F  0.29192201  0.41005154  0.70677000    -0.23100
F1240       F  0.25268501  0.39839231  0.72015877    -0.20400
F1241       F  0.27619439  0.43352632  0.69127701    -0.20100
F1242       F  0.22914005  0.32993207  0.57970198    -0.20100
F1243       F  0.27081639  0.35645409  0.57815740    -0.20500
F1244       F  0.24505221  0.36831398  0.55867168    -0.23100
C1245       C  0.13487961  0.24339897  0.65110166    -0.06000
C1246       C  0.15492441  0.26069639  0.63253913     0.00000
C1247       C  0.15137631  0.27666837  0.61199134    -0.08600
C1248       C  0.12833786  0.27568314  0.61200884    -0.06000
C1249       C  0.10958913  0.26048335  0.63319230    -0.00100
C1250       C  0.11233152  0.24319907  0.65212883    -0.08500
C1251       C  0.09274085  0.22508294  0.67492475     0.61900
H1252       H  0.13762130  0.23132831  0.66696006     0.12500
H1253       H  0.12597810  0.28900334  0.59811675     0.12600
C1254       C  0.17289716  0.29718918  0.59356339     0.62100
F1255       F  0.08684238  0.20077801  0.66897119    -0.23100
F1256       F  0.07077938  0.22536005  0.67347182    -0.20400
F1257       F  0.10243329  0.23123152  0.70444115    -0.20100
F1258       F  0.18296364  0.28672780  0.57532728    -0.20100
F1259       F  0.19087509  0.31408194  0.61376429    -0.20500
F1260       F  0.16550621  0.31035655  0.57453250    -0.23100
Fe1261     Fe  0.21440762  0.78362551  0.19156399     1.65800
Fe1262     Fe  0.24722006  0.75408156  0.18430903     1.73200
Fe1263     Fe  0.23257238  0.77784769  0.12000682     1.54400
O1264       O  0.19545650  0.76913040  0.11614726    -0.81900
O1265       O  0.27982848  0.77427780  0.15880038    -0.80200
O1266       O  0.18358779  0.77011091  0.16376051    -0.84400
O1267       O  0.23121636  0.81823378  0.16992248    -0.79200
O1268       O  0.22027052  0.73999963  0.11148856    -0.81000
O1269       O  0.26518568  0.78064753  0.21849325    -0.83700
C1270       C  0.24244379  0.82873953  0.14499971     0.97000
C1271       C  0.17920954  0.76690234  0.13522742     1.04500
O1272       O  0.23138736  0.77179166  0.16517697    -1.12700
O1273       O  0.21641357  0.73079483  0.21220865    -0.75200
O1274       O  0.19511712  0.75027511  0.21616384    -0.78600
O1275       O  0.24532294  0.81648625  0.12395652    -0.79300
C1276       C  0.19785148  0.73177078  0.22185678     0.95900
O1277       O  0.24324956  0.79929263  0.22277841    -0.77300
O1278       O  0.23182571  0.72585273  0.15209698    -0.82500
C1279       C  0.28549347  0.78540880  0.13269831     0.98500
C1280       C  0.22208582  0.72266878  0.12549796     1.04500
O1281       O  0.26970056  0.78772249  0.11652655    -0.78100
C1282       C  0.26164497  0.79703764  0.23029812     1.02800
Fe1283     Fe  0.21426599  0.93354664  0.19962669     1.65800
Fe1284     Fe  0.24678463  0.49424939  0.19197554     1.73200
Fe1285     Fe  0.23170720  0.96090443  0.12807739     1.54400
O1286       O  0.24116354  0.93298363  0.13057393    -0.81900
O1287       O  0.23191647  0.50854751  0.16069847    -0.80200
O1288       O  0.22989855  0.91625954  0.17749645    -0.84400
O1289       O  0.18308075  0.91706903  0.17198310    -0.79200
O1290       O  0.26932984  0.98686487  0.12485754    -0.81000
O1291       O  0.21658088  0.48544156  0.22035819    -0.83700
C1292       C  0.17777640  0.91903516  0.14422941     0.97000
C1293       C  0.23979096  0.91781623  0.15174385     1.04500
O1294       O  0.23158339  0.96411885  0.17341175    -1.12700
O1295       O  0.26422850  0.48395620  0.22521721    -0.75200
O1296       O  0.24335132  0.94614584  0.23056374    -0.78600
O1297       O  0.19385488  0.93452414  0.12528128    -0.79300
C1298       C  0.26244082  0.96716378  0.23762175     0.95900
O1299       O  0.19645783  0.94689706  0.22509392    -0.77300
O1300       O  0.27897193  0.50765001  0.16606408    -0.82500
C1301       C  0.22318746  0.50372878  0.13349236     0.98500
C1302       C  0.28427893  0.50238988  0.14034789     1.04500
O1303       O  0.22277227  0.98861144  0.11969700    -0.78100
C1304       C  0.19997517  0.96831825  0.23139360     1.02800
Fe1305     Fe  0.07618892  0.79025887  0.18970298     1.65800
Fe1306     Fe  0.51038818  0.75231869  0.18885932     1.73200
Fe1307     Fe  0.04757174  0.77637323  0.11938937     1.54400
O1308       O  0.07476868  0.81448987  0.11834964    -0.81900
O1309       O  0.50031285  0.71978834  0.16516316    -0.80200
O1310       O  0.09012489  0.82337516  0.16603681    -0.84400
O1311       O  0.09422865  0.77801407  0.16242395    -0.79200
O1312       O  0.02110260  0.78646258  0.11594673    -0.81000
O1313       O  0.02430689  0.73839807  0.21864508    -0.83700
C1314       C  0.09113410  0.76859820  0.13596579     0.97000
C1315       C  0.08861593  0.82997633  0.13879442     1.04500
O1316       O  0.04542550  0.77373862  0.16485490    -1.12700
O1317       O  0.02076143  0.78446051  0.21442665    -0.75200
O1318       O  0.06213350  0.80450332  0.22049875    -0.78600
O1319       O  0.07422018  0.76617690  0.11732981    -0.79300
C1320       C  0.04103266  0.80153610  0.22674371     0.95900
O1321       O  0.06570201  0.75910966  0.21601559    -0.77300
O1322       O  0.49396541  0.76327599  0.15539292    -0.82500
C1323       C  0.50308173  0.71699131  0.13691098     0.98500
C1324       C  0.50087593  0.77704695  0.13133605     1.04500
O1325       O  0.02049487  0.73897033  0.11408866    -0.78100
C1326       C  0.04533765  0.74159656  0.22686108     1.02800
Fe1327     Fe  0.23750622  0.61948090  0.02474741     1.65800
Fe1328     Fe  0.17439338  0.58703302  0.01757710     1.73200
Fe1329     Fe  0.21200942  0.60483862  0.45205652     1.54400
O1330       O  0.23459694  0.64383158  0.45109039    -0.81900
O1331       O  0.16048396  0.55836093  0.48535434    -0.80200
O1332       O  0.25634675  0.64966520  0.99525634    -0.84400
O1333       O  0.25174368  0.60013867  0.00458067    -0.79200
O1334       O  0.18145437  0.60869751  0.44260035    -0.81000
O1335       O  0.18267518  0.56550848  0.04700743    -0.83700
C1336       C  0.25482189  0.59670266  0.47608230     0.97000
C1337       C  0.25246642  0.65782264  0.46916681     1.04500
O1338       O  0.20758704  0.60375174  0.99860456    -1.12700
O1339       O  0.18456457  0.61567626  0.04991939    -0.75200
O1340       O  0.22614241  0.64059606  0.04715082    -0.78600
O1341       O  0.24310055  0.60038265  0.45436897    -0.79300
C1342       C  0.20502274  0.63610068  0.05615409     0.95900
O1343       O  0.22297409  0.59133595  0.05772071    -0.77300
O1344       O  0.16290669  0.60661767  0.48671595    -0.82500
C1345       C  0.16753357  0.55203345  0.46163964     0.98500
C1346       C  0.16498407  0.61006810  0.45774122     1.04500
O1347       O  0.18886451  0.56618947  0.44948701    -0.78100
C1348       C  0.20256648  0.57047802  0.06127238     1.02800
Fe1349     Fe  0.38328551  0.61765603  0.03259082     1.65800
Fe1350     Fe  0.41468905  0.58676597  0.02423536     1.73200
Fe1351     Fe  0.39449286  0.60333672  0.46227538     1.54400
O1352       O  0.35739497  0.59451566  0.46228319    -0.81900
O1353       O  0.44481887  0.60384597  0.49798626    -0.80200
O1354       O  0.35050862  0.60275586  0.00757553    -0.84400
O1355       O  0.39891391  0.65100952  0.00813083    -0.79200
O1356       O  0.38157953  0.56560613  0.45683721    -0.81000
O1357       O  0.43622346  0.61608088  0.05391895    -0.83700
C1358       C  0.40280028  0.65403414  0.48224060     0.97000
C1359       C  0.34140730  0.59064578  0.48272208     1.04500
O1360       O  0.39789431  0.60358719  0.00563860    -1.12700
O1361       O  0.38748910  0.56715492  0.05735481    -0.75200
O1362       O  0.36577485  0.58621489  0.06032952    -0.78600
O1363       O  0.40710467  0.64153042  0.46320246    -0.79300
C1364       C  0.36970667  0.56882942  0.06812702     0.95900
O1365       O  0.41397928  0.63423700  0.06131596    -0.77300
O1366       O  0.39712940  0.55447390  0.49633322    -0.82500
C1367       C  0.44827489  0.61178247  0.47040422     0.98500
C1368       C  0.38490203  0.54953824  0.47114163     1.04500
O1369       O  0.43115285  0.61245695  0.45494691    -0.78100
C1370       C  0.43274205  0.63209272  0.06697236     1.02800
Fe1371     Fe  0.37954764  0.76186314  0.03058138     1.65800
Fe1372     Fe  0.41610674  0.82577461  0.02203863     1.73200
Fe1373     Fe  0.39283884  0.78688842  0.45694908     1.54400
O1374       O  0.39715410  0.75572464  0.45688327    -0.81900
O1375       O  0.39591003  0.83750521  0.49414125    -0.80200
O1376       O  0.39270356  0.74364434  0.00580101    -0.84400
O1377       O  0.34652794  0.74592111  0.00587249    -0.79200
O1378       O  0.43067985  0.80892404  0.45198641    -0.81000
O1379       O  0.38931161  0.81840663  0.05564979    -0.83700
C1380       C  0.34011899  0.74776284  0.47686433     0.97000
C1381       C  0.39907532  0.74231517  0.47790832     1.04500
O1382       O  0.39592622  0.79201148  0.00357592    -1.12700
O1383       O  0.43572091  0.81506926  0.05059104    -0.75200
O1384       O  0.41052050  0.77374370  0.05849867    -0.78600
O1385       O  0.35453807  0.76431459  0.45752807    -0.79300
C1386       C  0.43108203  0.79430702  0.06253419     0.95900
O1387       O  0.36464287  0.77662035  0.05884629    -0.77300
O1388       O  0.44353320  0.83754658  0.48852377    -0.82500
C1389       C  0.38903171  0.83453757  0.46624756     0.98500
C1390       C  0.44764822  0.82889471  0.46437002     1.04500
O1391       O  0.38841376  0.81753083  0.44979307    -0.78100
C1392       C  0.37045250  0.79852330  0.06672681     1.02800
Fe1393     Fe  0.40317195  0.95208934  0.36149554     1.65800
Fe1394     Fe  0.33930841  0.91945165  0.35717837     1.73200
Fe1395     Fe  0.37448092  0.93659159  0.29089582     1.54400
O1396       O  0.40077811  0.97498742  0.28882148    -0.81900
O1397       O  0.32395322  0.88832548  0.32910080    -0.80200
O1398       O  0.41858414  0.98445906  0.33535680    -0.84400
O1399       O  0.41972775  0.93704344  0.33679234    -0.79200
O1400       O  0.34744403  0.94624099  0.28515130    -0.81000
O1401       O  0.34875835  0.89951721  0.38776890    -0.83700
C1402       C  0.41753809  0.92779578  0.31048845     0.97000
C1403       C  0.41542913  0.99080090  0.30854961     1.04500
O1404       O  0.37224877  0.93594024  0.33646395    -1.12700
O1405       O  0.34983048  0.94874971  0.38770135    -0.75200
O1406       O  0.39136558  0.96942050  0.39030157    -0.78600
O1407       O  0.40194946  0.92674707  0.29045301    -0.79300
C1408       C  0.37061742  0.96648259  0.39796911     0.95900
O1409       O  0.39049770  0.92142973  0.39014315    -0.77300
O1410       O  0.32610532  0.93711324  0.32877449    -0.82500
C1411       C  0.32878500  0.88296398  0.30314513     0.98500
C1412       C  0.33067853  0.94601590  0.30150169     1.04500
O1413       O  0.34771952  0.89868439  0.28744157    -0.78100
C1414       C  0.36939842  0.90257619  0.39761601     1.02800
Fe1415     Fe  0.04238419  0.94463087  0.36116543     1.65800
Fe1416     Fe  0.07880658  0.91999214  0.35357164     1.73200
Fe1417     Fe  0.05807407  0.93714048  0.29012231     1.54400
O1418       O  0.02084588  0.92888581  0.29086392    -0.81900
O1419       O  0.11019033  0.94360887  0.32814015    -0.80200
O1420       O  0.00885369  0.92084168  0.33962687    -0.84400
O1421       O  0.04827694  0.97353730  0.33191452    -0.79200
O1422       O  0.04498369  0.89945065  0.28456602    -0.81000
O1423       O  0.09413433  0.94745708  0.38810627    -0.83700
C1424       C  0.06089967  0.98444670  0.30798122     0.97000
C1425       C  0.00396951  0.92173067  0.31129664     1.04500
O1426       O  0.05986801  0.93386570  0.33491720    -1.12700
O1427       O  0.04921697  0.89443836  0.38098400    -0.75200
O1428       O  0.03330397  0.91740026  0.39487935    -0.78600
O1429       O  0.07107897  0.97529322  0.29219245    -0.79300
C1430       C  0.03494507  0.89797845  0.39769856     0.95900
O1431       O  0.07497944  0.96924382  0.38351046    -0.77300
O1432       O  0.06596086  0.89171173  0.32055963    -0.82500
C1433       C  0.11288835  0.94863454  0.29961492     0.98500
C1434       C  0.05208772  0.88535021  0.29644214     1.04500
O1435       O  0.09478502  0.94584991  0.28269702    -0.78100
C1436       C  0.09226321  0.96641802  0.39456712     1.02800
Fe1437     Fe  0.03798810  0.59261562  0.35642230     1.65800
Fe1438     Fe  0.07961616  0.65535780  0.35019018     1.73200
Fe1439     Fe  0.05484933  0.61940938  0.28578032     1.54400
O1440       O  0.06300491  0.59135253  0.28569488    -0.81900
O1441       O  0.06754094  0.67317399  0.32051033    -0.80200
O1442       O  0.04115195  0.56924116  0.32660239    -0.84400
O1443       O  0.00546401  0.58597678  0.33533210    -0.79200
O1444       O  0.09238948  0.64536791  0.27832514    -0.81000
O1445       O  0.05190035  0.65112884  0.38005910    -0.83700
C1446       C  0.99983580  0.58400298  0.30688697     0.97000
C1447       C  0.05247199  0.57130572  0.30182461     1.04500
O1448       O  0.05780747  0.62262529  0.33077461    -1.12700
O1449       O  0.09391294  0.64011962  0.38158143    -0.75200
O1450       O  0.06972079  0.59806850  0.37863241    -0.78600
O1451       O  0.01653053  0.59298520  0.28622951    -0.79300
C1452       C  0.08947276  0.61794998  0.38755096     0.95900
O1453       O  0.03069171  0.61018792  0.39061150    -0.77300
O1454       O  0.10995187  0.66475062  0.32196479    -0.82500
C1455       C  0.05407237  0.66732730  0.29627234     0.98500
C1456       C  0.11155053  0.66104202  0.29370399     1.04500
O1457       O  0.04642668  0.64699955  0.28197174    -0.78100
C1458       C  0.03496574  0.63217664  0.39474506     1.02800
C1459       C  0.03459139  0.50416708  0.29609690    -0.06000
C1460       C  0.05830409  0.50701547  0.29506512     0.00000
C1461       C  0.07972414  0.53103335  0.28923734    -0.08600
C1462       C  0.07675484  0.55203856  0.28773128    -0.06000
C1463       C  0.05321524  0.54920637  0.29239827    -0.00100
C1464       C  0.03152169  0.52473940  0.29452846    -0.08500
C1465       C  0.00487749  0.51911601  0.29720996     0.61900
H1466       H  0.02067404  0.98634707  0.30008287     0.12500
H1467       H  0.09306037  0.57093429  0.28587827     0.12600
C1468       C  0.10554252  0.53461042  0.28713912     0.62100
F1469       F  0.98947025  0.50056647  0.27657195    -0.23100
F1470       F  0.00302150  0.53987384  0.29084754    -0.20400
F1471       F  0.99624574  0.51050721  0.32668537    -0.20100
F1472       F  0.10594340  0.52042364  0.26331118    -0.20100
F1473       F  0.11137081  0.52692707  0.31445629    -0.20500
F1474       F  0.12381734  0.55960318  0.28159946    -0.23100
C1475       C  0.44531571  0.52713386  0.27345721    -0.06000
C1476       C  0.43067914  0.51964274  0.30016421     0.00000
C1477       C  0.43466610  0.53814437  0.32171682    -0.08600
C1478       C  0.45715225  0.56143537  0.32046558    -0.06000
C1479       C  0.47480133  0.56705407  0.29730481    -0.00100
C1480       C  0.46701467  0.55146955  0.27095753    -0.08500
C1481       C  0.97731223  0.56185052  0.24077896     0.61900
H1482       H  0.44092519  0.51333959  0.25579586     0.12500
H1483       H  0.46193077  0.57438352  0.33933822     0.12600
C1484       C  0.41669728  0.53331235  0.34766263     0.62100
F1485       F  0.95958696  0.55265893  0.21735667    -0.23100
F1486       F  0.99327319  0.55299888  0.23684386    -0.20400
F1487       F  0.99059373  0.58786374  0.23806992    -0.20100
F1488       F  0.42641333  0.53027977  0.37509737    -0.20100
F1489       F  0.39327357  0.51212536  0.34266243    -0.20500
F1490       F  0.41358706  0.55371343  0.35004995    -0.23100
C1491       C  0.45151520  0.92896541  0.27993716    -0.06000
C1492       C  0.43436799  0.91818210  0.30415257     0.00000
C1493       C  0.43748661  0.90286888  0.32618303    -0.08600
C1494       C  0.46015495  0.90331453  0.32714357    -0.06000
C1495       C  0.47919238  0.91710644  0.30550337    -0.00100
C1496       C  0.47361052  0.92789095  0.27954284    -0.08500
C1497       C  0.98950188  0.93729392  0.24921566     0.61900
H1498       H  0.44843214  0.93981016  0.26252099     0.12500
H1499       H  0.46325484  0.89332424  0.34575345     0.12600
C1500       C  0.41762178  0.88609012  0.34945186     0.62100
F1501       F  0.48002653  0.94531313  0.22825107    -0.23100
F1502       F  0.99292069  0.91850499  0.23838193    -0.20400
F1503       F  0.01250243  0.95829122  0.25609000    -0.20100
F1504       F  0.39517576  0.88488268  0.34416906    -0.20100
F1505       F  0.42603892  0.89496333  0.37878973    -0.20500
F1506       F  0.41303195  0.86179735  0.34767967    -0.23100
C1507       C  0.36267135  0.84193811  0.42946238    -0.06000
C1508       C  0.38173673  0.85174963  0.45200443     0.00000
C1509       C  0.39438527  0.87789236  0.45882901    -0.08600
C1510       C  0.38783623  0.89321595  0.44214317    -0.06000
C1511       C  0.36987995  0.88371046  0.41844864    -0.00100
C1512       C  0.35648283  0.85750186  0.41237346    -0.08500
C1513       C  0.33649964  0.84610452  0.38732853     0.61900
H1514       H  0.35301058  0.82192891  0.42482521     0.12500
H1515       H  0.39764249  0.91328752  0.44648542     0.12600
C1516       C  0.41587653  0.89019786  0.48199144     0.62100
F1517       F  0.32679834  0.82046581  0.38439241    -0.23100
F1518       F  0.34648443  0.85755171  0.35927802    -0.20400
F1519       F  0.31695810  0.84948243  0.39432795    -0.20100
F1520       F  0.43410780  0.88488693  0.47473759    -0.20100
F1521       F  0.41068425  0.88478164  0.01179867    -0.20500
F1522       F  0.42710434  0.91620477  0.48211922    -0.23100
C1523       C  0.00160719  0.85419152  0.40935431    -0.06000
C1524       C  0.01821949  0.87848054  0.42022601     0.00000
C1525       C  0.01466761  0.88488364  0.44993506    -0.08600
C1526       C  0.49182616  0.86510645  0.46373003    -0.06000
C1527       C  0.47291244  0.84308330  0.44939860    -0.00100
C1528       C  0.47853687  0.83615009  0.42070462    -0.08500
C1529       C  0.46061765  0.81169280  0.40418360     0.61900
H1530       H  0.00499664  0.84931576  0.38693723     0.12500
H1531       H  0.48855687  0.87000899  0.48619599     0.12600
C1532       C  0.03385217  0.90873359  0.46614850     0.62100
F1533       F  0.47130331  0.80856589  0.37831476    -0.23100
F1534       F  0.43941466  0.81174075  0.39462659    -0.20400
F1535       F  0.45406476  0.79124337  0.42356637    -0.20100
F1536       F  0.02465634  0.92463382  0.46830611    -0.20100
F1537       F  0.05663902  0.92122289  0.45117973    -0.20500
F1538       F  0.03808506  0.90264132  0.49550765    -0.23100
C1539       C  0.47754877  0.63241332  0.42631645    -0.06000
C1540       C  0.47266594  0.61951456  0.45484033     0.00000
C1541       C  0.48986139  0.61235555  0.46574439    -0.08600
C1542       C  0.01254062  0.62021396  0.44421517    -0.06000
C1543       C  0.01848758  0.63462917  0.41696771    -0.00100
C1544       C  0.49752269  0.63669306  0.40736842    -0.08500
C1545       C  0.50027517  0.64842569  0.37558886     0.61900
H1546       H  0.46486834  0.63828589  0.41820020     0.12500
H1547       H  0.02327975  0.61149056  0.44989356     0.12600
C1548       C  0.48702197  0.59919732  0.49666533     0.62100
F1549       F  0.48184932  0.65396826  0.36935137    -0.23100
F1550       F  0.00919196  0.64990107  0.35506003    -0.20400
F1551       F  0.03584955  0.68380510  0.38322610    -0.20100
F1552       F  0.46462260  0.57621397  0.49738186    -0.20100
F1553       F  0.48942748  0.62552060  0.01769704    -0.20500
F1554       F  0.00402390  0.59140225  0.49568492    -0.23100
C1555       C  0.38759658  0.51133704  0.46587962    -0.06000
C1556       C  0.37584221  0.52461756  0.45686280     0.00000
C1557       C  0.35736811  0.51458806  0.43310214    -0.08600
C1558       C  0.36054782  0.99933486  0.40683307    -0.06000
C1559       C  0.37122512  0.98573174  0.41809308    -0.00100
C1560       C  0.38454672  0.99264584  0.44630212    -0.08500
C1561       C  0.39494777  0.97735618  0.46048568     0.61900
H1562       H  0.40058582  0.51798850  0.48512069     0.12500
H1563       H  0.35031115  0.99348180  0.38524915     0.12600
C1564       C  0.33994064  0.52431329  0.42628166     0.62100
F1565       F  0.40268554  0.98413930  0.49061621    -0.23100
F1566       F  0.41532268  0.98119474  0.44383784    -0.20400
F1567       F  0.37667031  0.95194824  0.46046367    -0.20100
F1568       F  0.35231201  0.54658461  0.40940132    -0.20100
F1569       F  0.33144816  0.52831393  0.45349936    -0.20500
F1570       F  0.31912983  0.50705215  0.40953414    -0.23100
C1571       C  0.39525597  0.68285700  0.45070450    -0.06000
C1572       C  0.40898003  0.67984111  0.47450600     0.00000
C1573       C  0.42383672  0.70007723  0.49451712    -0.08600
C1574       C  0.42242558  0.72183112  0.49197516    -0.06000
C1575       C  0.40608946  0.72357702  0.47089488    -0.00100
C1576       C  0.39316434  0.70440370  0.44880811    -0.08500
C1577       C  0.37568826  0.70564235  0.42514599     0.61900
H1578       H  0.38411270  0.66709071  0.43561936     0.12500
H1579       H  0.43230697  0.73670588  0.50861588     0.12600
C1580       C  0.43877741  0.69777188  0.52091919     0.62100
F1581       F  0.36458938  0.68472226  0.40641843    -0.23100
F1582       F  0.38905778  0.72683996  0.40661649    -0.20400
F1583       F  0.35663247  0.70721814  0.94212458    -0.20100
F1584       F  0.45025253  0.68502788  0.51174700    -0.20100
F1585       F  0.42294086  0.68482084  0.54519605    -0.20500
F1586       F  0.45730753  0.72129484  0.53113751    -0.23100
C1587       C  0.13672938  0.59984152  0.41270204    -0.06000
C1588       C  0.14619584  0.61344571  0.44010154     0.00000
C1589       C  0.13725954  0.62913144  0.44948898    -0.08600
C1590       C  0.11806276  0.62929936  0.43228387    -0.06000
C1591       C  0.10839447  0.61534097  0.40536146    -0.00100
C1592       C  0.11833446  0.60090251  0.39476133    -0.08500
C1593       C  0.11031731  0.58745910  0.36409471     0.61900
H1594       H  0.14378762  0.58811134  0.40545329     0.12500
H1595       H  0.11085042  0.64096228  0.43924892     0.12600
C1596       C  0.14993377  0.64796007  0.47495921     0.62100
F1597       F  0.12515611  0.57799361  0.35601342    -0.23100
F1598       F  0.11228805  0.60413125  0.34107007    -0.20400
F1599       F  0.08579929  0.56749437  0.36573831    -0.20100
F1600       F  0.17473229  0.66378725  0.46698461    -0.20100
F1601       F  0.14818944  0.63589111  0.50268714    -0.20500
F1602       F  0.13948854  0.66265638  0.47885204    -0.23100
C1603       C  0.12368550  0.52273973  0.44741678    -0.06000
C1604       C  0.14858104  0.52856098  0.44591931     0.00000
C1605       C  0.15422732  0.51349386  0.42763734    -0.08600
C1606       C  0.13662080  0.99363963  0.41164186    -0.06000
C1607       C  0.11142678  0.98661458  0.41477043    -0.00100
C1608       C  0.10424687  0.50325373  0.43043665    -0.08500
C1609       C  0.07878622  0.99393048  0.44039549     0.61900
H1610       H  0.11970200  0.53478011  0.46074016     0.12500
H1611       H  0.14090401  0.98315906  0.39584100     0.12600
C1612       C  0.18073858  0.51878558  0.42464914     0.62100
F1613       F  0.07672122  0.51423549  0.45452875    -0.23100
F1614       F  0.06296558  0.96825187  0.44453285    -0.20400
F1615       F  0.07284400  0.50735702  0.40402275    -0.20100
F1616       F  0.19103393  0.52041189  0.45354345    -0.20100
F1617       F  0.19536019  0.54115644  0.40855627    -0.20500
F1618       F  0.18436241  0.00366402  0.40512363    -0.23100
C1619       C  0.27339379  0.70004889  0.48979367    -0.06000
C1620       C  0.26854910  0.68516475  0.46376969     0.00000
C1621       C  0.28393892  0.69574846  0.43757060    -0.08600
C1622       C  0.30678654  0.71881133  0.44105663    -0.06000
C1623       C  0.31344472  0.73130175  0.46933616    -0.00100
C1624       C  0.29526856  0.72355756  0.49258511    -0.08500
C1625       C  0.30004846  0.73796184  0.52220864     0.61900
H1626       H  0.26104222  0.69200115  0.50970097     0.12500
H1627       H  0.32060225  0.72594189  0.42266679     0.12600
C1628       C  0.27670055  0.68254156  0.40686955     0.62100
F1629       F  0.27817355  0.73585490  0.53230217    -0.23100
F1630       F  0.31746209  0.76339984  0.51798929    -0.20400
F1631       F  0.30160558  0.72848931  0.04889275    -0.20100
F1632       F  0.25426391  0.67974772  0.39698004    -0.20100
F1633       F  0.27385605  0.65902563  0.40948140    -0.20500
F1634       F  0.29460247  0.69621328  0.38465979    -0.23100
C1635       C  0.27376465  0.57131495  0.48936264    -0.06000
C1636       C  0.27350269  0.58942536  0.46965540     0.00000
C1637       C  0.29363923  0.60322963  0.44889667    -0.08600
C1638       C  0.31441839  0.60015039  0.45077874    -0.06000
C1639       C  0.31598004  0.58460598  0.47343207    -0.00100
C1640       C  0.29458745  0.56840571  0.49130679    -0.08500
C1641       C  0.29419726  0.54951142  0.51431048     0.61900
H1642       H  0.25819592  0.56053668  0.50489280     0.12500
H1643       H  0.33325084  0.61945211  0.93786669     0.12600
C1644       C  0.29579876  0.62911707  0.93011946     0.62100
F1645       F  0.27003639  0.52910281  0.51800767    -0.23100
F1646       F  0.30307244  0.56088574  0.54248496    -0.20400
F1647       F  0.30886008  0.54039968  0.50431784    -0.20100
F1648       F  0.29426951  0.64585737  0.94910293    -0.20100
F1649       F  0.27417690  0.61295135  0.40817878    -0.20500
F1650       F  0.31758999  0.64249440  0.91321182    -0.23100
C1651       C  0.44383674  0.78250415  0.11074699    -0.06000
C1652       C  0.45048846  0.79349743  0.08138161     0.00000
C1653       C  0.47429847  0.80090217  0.06944592    -0.08600
C1654       C  0.49033446  0.79594085  0.08708956    -0.06000
C1655       C  0.48344917  0.78386373  0.11617415    -0.00100
C1656       C  0.45997033  0.77789361  0.12881615    -0.08500
C1657       C  0.45147021  0.76672664  0.16097407     0.61900
H1658       H  0.42545759  0.77709211  0.11918510     0.12500
H1659       H  0.50828227  0.80095658  0.07764258     0.12600
C1660       C  0.48232651  0.81294364  0.03763025     0.62100
F1661       F  0.42953671  0.76549036  0.16917052    -0.23100
F1662       F  0.46965373  0.78164500  0.18233425    -0.20400
F1663       F  0.44696253  0.74241815  0.16238208    -0.20100
F1664       F  0.48390040  0.83600213  0.03693164    -0.20100
F1665       F  0.46508481  0.79735633  0.01580914    -0.20500
F1666       F  0.50554718  0.81708465  0.02966683    -0.23100
C1667       C  0.46229806  0.67712110  0.13298871    -0.06000
C1668       C  0.48706004  0.69201841  0.12266130     0.00000
C1669       C  0.49486039  0.68394569  0.09705578    -0.08600
C1670       C  0.47673440  0.66290230  0.08053889    -0.06000
C1671       C  0.45151110  0.64966301  0.08919902    -0.00100
C1672       C  0.44447012  0.65562966  0.11707339    -0.08500
C1673       C  0.41810480  0.64040001  0.12977588     0.61900
H1674       H  0.45646038  0.68301042  0.15285667     0.12500
H1675       H  0.48190351  0.65773486  0.05949064     0.12600
C1676       C  0.02183545  0.70336796  0.07516687     0.62100
F1677       F  0.41869856  0.64064108  0.16161832    -0.23100
F1678       F  0.40630443  0.61545854  0.12100956    -0.20400
F1679       F  0.40432959  0.65075413  0.11933461    -0.20100
F1680       F  0.03959503  0.70914443  0.09805857    -0.20100
F1681       F  0.02552676  0.72535131  0.06146234    -0.20500
F1682       F  0.02549144  0.68999999  0.05289126    -0.23100
C1683       C  0.02609016  0.83024505  0.23975462    -0.06000
C1684       C  0.04060061  0.81978648  0.24798671     0.00000
C1685       C  0.05572804  0.82836703  0.27488314    -0.08600
C1686       C  0.05802187  0.84905585  0.29051342    -0.06000
C1687       C  0.04529741  0.86121392  0.28081711    -0.00100
C1688       C  0.02782562  0.85063443  0.25583825    -0.08500
C1689       C  0.01106231  0.86051808  0.24560634     0.61900
H1690       H  0.01418951  0.82306568  0.21954978     0.12500
H1691       H  0.07069450  0.85640613  0.30999950     0.12600
C1692       C  0.06909071  0.81550376  0.28759378     0.62100
F1693       F  0.99296048  0.84469132  0.22466537    -0.23100
F1694       F  0.02524448  0.88396891  0.23159013    -0.20400
F1695       F  0.99873672  0.86221544  0.27071870    -0.20100
F1696       F  0.08927208  0.82119847  0.26925991    -0.20100
F1697       F  0.05252086  0.78967058  0.28863732    -0.20500
F1698       F  0.07805919  0.82319556  0.31716347    -0.23100
C1699       C  0.02560221  0.69890942  0.25026509    -0.06000
C1700       C  0.04633691  0.72373682  0.24897777     0.00000
C1701       C  0.06799783  0.73032376  0.26722099    -0.08600
C1702       C  0.06873815  0.71126016  0.28386789    -0.06000
C1703       C  0.04903112  0.68611902  0.28274378    -0.00100
C1704       C  0.02657588  0.67978293  0.26680744    -0.08500
C1705       C  0.50540415  0.65147121  0.26481014     0.61900
H1706       H  0.50880890  0.69265879  0.23789231     0.12500
H1707       H  0.08568204  0.71567950  0.29630917     0.12600
C1708       C  0.09085987  0.75693672  0.26877089     0.62100
F1709       F  0.48379102  0.64953803  0.25288201    -0.23100
F1710       F  0.99949637  0.64190878  0.29488806    -0.20400
F1711       F  0.51340423  0.64036553  0.24442259    -0.20100
F1712       F  0.10661622  0.75954872  0.29308038    -0.20100
F1713       F  0.10449635  0.76273125  0.24195152    -0.20500
F1714       F  0.08348542  0.77408076  0.27297502    -0.23100
C1715       C  0.19797798  0.51051791  0.09368139    -0.06000
C1716       C  0.21546172  0.52048866  0.11807879    -0.02700
C1717       C  0.22624341  0.54643833  0.12544054    -0.08600
C1718       C  0.21927690  0.56113584  0.10794272    -0.06000
C1719       C  0.20314611  0.55159746  0.08243681    -0.00100
C1720       C  0.19192445  0.52566507  0.07532267    -0.08500
C1721       C  0.17480078  0.51425264  0.04755501     0.61900
H1722       H  0.18964159  0.49075198  0.08835801     0.12500
H1723       H  0.22753954  0.58093237  0.11309063     0.12600
C1724       C  0.24580589  0.06226632  0.15250074     0.62100
F1725       F  0.16735750  0.48919292  0.04372380    -0.23100
F1726       F  0.18719744  0.52739766  0.02120773    -0.20400
F1727       F  0.15348582  0.51541477  0.05107061    -0.20100
F1728       F  0.25470563  0.08785660  0.15383515    -0.20100
F1729       F  0.26611659  0.55604055  0.14372747    -0.20500
F1730       F  0.23694646  0.54983827  0.17868497    -0.23100
C1731       C  0.34826867  0.55858396  0.11791465    -0.06000
C1732       C  0.35222282  0.54982676  0.09044340     0.00000
C1733       C  0.33681799  0.52411868  0.08292944    -0.08600
C1734       C  0.31577631  0.50874459  0.10134010    -0.06000
C1735       C  0.31003284  0.51816820  0.12721712    -0.00100
C1736       C  0.32790906  0.54301039  0.13719395    -0.08500
C1737       C  0.32571061  0.55363589  0.16735652     0.61900
H1738       H  0.36076391  0.57824947  0.12346801     0.12500
H1739       H  0.30303957  0.48936272  0.09475952     0.12600
C1740       C  0.34196034  0.51330970  0.05491545     0.62100
F1741       F  0.34656603  0.57718223  0.17317614    -0.23100
F1742       F  0.32355255  0.53772096  0.19144570    -0.20400
F1743       F  0.30640035  0.05999719  0.16266614    -0.20100
F1744       F  0.36501180  0.51541177  0.05835765    -0.20100
F1745       F  0.34214634  0.52631164  0.02861900    -0.20500
F1746       F  0.32401436  0.48805897  0.05101104    -0.23100
C1747       C  0.14405138  0.97167485  0.25784496    -0.06000
C1748       C  0.13772386  0.95711302  0.28519817     0.00000
C1749       C  0.15413095  0.94909013  0.29637822    -0.08600
C1750       C  0.17535193  0.95502043  0.27897629    -0.06000
C1751       C  0.18086567  0.96843372  0.25105968    -0.00100
C1752       C  0.16534410  0.97743603  0.24049835    -0.08500
C1753       C  0.17238317  0.49391575  0.21148995     0.61900
H1754       H  0.13169575  0.97796307  0.24960367     0.12500
H1755       H  0.18751687  0.94825958  0.28643035     0.12600
C1756       C  0.14893149  0.93315781  0.32555557     0.62100
F1757       F  0.15635431  0.50269337  0.20581561    -0.23100
F1758       F  0.17167045  0.48038318  0.18620482    -0.20400
F1759       F  0.19632991  0.51458283  0.21505013    -0.20100
F1760       F  0.12558691  0.91130300  0.32352693    -0.20100
F1761       F  0.14988139  0.94680939  0.35082727    -0.20500
F1762       F  0.16638891  0.92606276  0.33039411    -0.23100
C1763       C  0.28977252  0.94340032  0.29763317    -0.06000
C1764       C  0.31482190  0.95532268  0.28797154     0.00000
C1765       C  0.32362881  0.97533375  0.26586243    -0.08600
C1766       C  0.30620466  0.98032104  0.25148479    -0.06000
C1767       C  0.28073039  0.96667538  0.25936037    -0.00100
C1768       C  0.27284821  0.94945456  0.28453116    -0.08500
C1769       C  0.24658773  0.93671759  0.29759465     0.61900
H1770       H  0.28312395  0.92878182  0.31529179     0.12500
H1771       H  0.30889875  0.49125356  0.23330855     0.12600
C1772       C  0.35115733  0.99155355  0.25749188     0.62100
F1773       F  0.24741647  0.93427303  0.32924955    -0.23100
F1774       F  0.23204424  0.91297516  0.28517187    -0.20400
F1775       F  0.23543398  0.95063995  0.29146002    -0.20100
F1776       F  0.35819674  0.97789733  0.24011242    -0.20100
F1777       F  0.36309469  0.49980269  0.28537354    -0.20500
F1778       F  0.35278649  0.51208264  0.24179324    -0.23100
C1779       C  0.13280995  0.89692914  0.15509436    -0.06000
C1780       C  0.15170773  0.90160985  0.13427272     0.00000
C1781       C  0.14565529  0.88609711  0.10815040    -0.08600
C1782       C  0.12214290  0.86347381  0.10725549    -0.06000
C1783       C  0.10500614  0.85688579  0.13122883    -0.00100
C1784       C  0.10908204  0.87508132  0.15327594    -0.08500
C1785       C  0.08960421  0.87101116  0.17679685     0.61900
H1786       H  0.13711700  0.90960949  0.17415016     0.12500
H1787       H  0.11828163  0.84958450  0.08992681     0.12600
C1788       C  0.16442913  0.89231990  0.08274601     0.62100
F1789       F  0.08795035  0.89235270  0.17791691    -0.23100
F1790       F  0.09661826  0.86670580  0.20552350    -0.20400
F1791       F  0.06603530  0.85084516  0.16949440    -0.20100
F1792       F  0.18515463  0.89227236  0.09433572    -0.20100
F1793       F  0.17183976  0.91589236  0.07037725    -0.20500
F1794       F  0.15425337  0.87505227  0.05918316    -0.23100
C1795       C  0.32337347  0.78192154  0.13036717    -0.06000
C1796       C  0.31090588  0.79412055  0.11969997     0.00000
C1797       C  0.32218481  0.81250571  0.09559076    -0.08600
C1798       C  0.34309731  0.81496741  0.08017108    -0.06000
C1799       C  0.35340417  0.80030247  0.08858283    -0.00100
C1800       C  0.34462252  0.78495792  0.11548732    -0.08500
C1801       C  0.35717860  0.77123934  0.12815486     0.61900
H1802       H  0.31553557  0.76865433  0.14945732     0.12500
H1803       H  0.35052014  0.82723513  0.06011277     0.12600
C1804       C  0.31247561  0.82953867  0.08587015     0.62100
F1805       F  0.35067783  0.76380820  0.15851505    -0.23100
F1806       F  0.38298079  0.78695358  0.12707327    -0.20400
F1807       F  0.34997500  0.74995461  0.11107185    -0.20100
F1808       F  0.30815434  0.83945113  0.11159607    -0.20100
F1809       F  0.29053194  0.81608439  0.06906188    -0.20500
F1810       F  0.32963593  0.84957978  0.06771547    -0.23100
C1811       C  0.21174135  0.69858008  0.07710884    -0.06000
C1812       C  0.21390130  0.69835897  0.10926632     0.00000
C1813       C  0.20972785  0.67567724  0.12409681    -0.08600
C1814       C  0.20525633  0.65509402  0.10582829    -0.06000
C1815       C  0.20477306  0.65624892  0.07365080    -0.00100
C1816       C  0.20755073  0.67822427  0.05909362    -0.08500
C1817       C  0.20604194  0.68153002  0.02473735     0.61900
H1818       H  0.21436914  0.71540279  0.06544116     0.12500
H1819       H  0.20327781  0.63823683  0.11655173     0.12600
C1820       C  0.21029887  0.67284717  0.15885137     0.62100
F1821       F  0.18615115  0.68483722  0.01870893    -0.23100
F1822       F  0.20286454  0.66128763  0.00824637    -0.20400
F1823       F  0.22764348  0.70293719  0.01471599    -0.20100
F1824       F  0.19531105  0.68017660  0.17239696    -0.20100
F1825       F  0.23461797  0.68745436  0.16968163    -0.20500
F1826       F  0.20144472  0.64808579  0.16786775    -0.23100
C1827       C  0.26969518  0.82324520  0.27581753    -0.06000
C1828       C  0.27961685  0.81515979  0.25317412     0.00000
C1829       C  0.30600986  0.82738034  0.25018906    -0.08600
C1830       C  0.32136452  0.84825613  0.26889471    -0.06000
C1831       C  0.31133934  0.85775021  0.28963775    -0.00100
C1832       C  0.28491548  0.84455697  0.29383148    -0.08500
C1833       C  0.27238286  0.85350274  0.31559214     0.61900
H1834       H  0.24950504  0.81336357  0.27810943     0.12500
H1835       H  0.34153386  0.85819209  0.26636256     0.12600
C1836       C  0.31802774  0.81962995  0.22618784     0.62100
F1837       F  0.27909874  0.87799728  0.30803407    -0.23100
F1838       F  0.27951969  0.85239779  0.34557978    -0.20400
F1839       F  0.24647665  0.83869820  0.31409280    -0.20100
F1840       F  0.34390436  0.83494285  0.22637842    -0.20100
F1841       F  0.30955198  0.82129828  0.19715535    -0.20500
F1842       F  0.31204790  0.79512508  0.23199696    -0.23100
C1843       C  0.13488268  0.67512428  0.24433364    -0.06000
C1844       C  0.13595269  0.67648390  0.27671898     0.00000
C1845       C  0.15949615  0.69368855  0.29076801    -0.08600
C1846       C  0.17991503  0.71041310  0.27178763    -0.06000
C1847       C  0.17778025  0.71030040  0.23959631    -0.00100
C1848       C  0.15510459  0.69178025  0.22555946    -0.08500
C1849       C  0.15056205  0.68889051  0.19102305     0.61900
H1850       H  0.11748722  0.66162345  0.23305275     0.12500
H1851       H  0.19747048  0.72465325  0.28205112     0.12600
C1852       C  0.16336547  0.69493546  0.32541303     0.62100
F1853       F  0.13016702  0.69104897  0.18353747    -0.23100
F1854       F  0.14511686  0.66512814  0.18281313    -0.20400
F1855       F  0.17071973  0.70654475  0.17379335    -0.20100
F1856       F  0.15473996  0.67098090  0.33740794    -0.20100
F1857       F  0.15070235  0.70513728  0.33864926    -0.20500
F1858       F  0.18845090  0.70985817  0.33338108    -0.23100
C1859       C  0.25808261  0.86975540  0.16951123    -0.06000
C1860       C  0.25150573  0.85626400  0.14194020     0.00000
C1861       C  0.24931693  0.86818599  0.11482952    -0.08600
C1862       C  0.24697923  0.88960115  0.11800316    -0.06000
C1863       C  0.24929771  0.90045846  0.14695119    -0.00100
C1864       C  0.25825717  0.89229524  0.17210090    -0.08500
C1865       C  0.26675788  0.90612603  0.20244551     0.61900
H1866       H  0.26183979  0.86180872  0.18985934     0.12500
H1867       H  0.24225595  0.89721494  0.09819649     0.12600
C1868       C  0.25049404  0.85922735  0.08306821     0.62100
F1869       F  0.28455446  0.90230367  0.21662237    -0.23100
F1870       F  0.24652326  0.89726433  0.22192613    -0.20400
F1871       F  0.27762613  0.93186334  0.19780946    -0.20100
F1872       F  0.23048858  0.83521785  0.07796226    -0.20100
F1873       F  0.27247756  0.85913634  0.08056903    -0.20500
F1874       F  0.25032134  0.87499527  0.06019291    -0.23100
C1875       C  0.13355135  0.74269837  0.14148285    -0.06000
C1876       C  0.15416443  0.76150494  0.12500191     0.00000
C1877       C  0.15113117  0.77872637  0.10624107    -0.08600
C1878       C  0.12813249  0.77778005  0.10679355    -0.06000
C1879       C  0.10892939  0.76120506  0.12671585    -0.00100
C1880       C  0.11099607  0.74237966  0.14302927    -0.08500
C1881       C  0.09070138  0.72247914  0.16370092     0.61900
H1882       H  0.13591355  0.72955736  0.15569681     0.12500
H1883       H  0.12615198  0.79207252  0.09464161     0.12600
C1884       C  0.17301599  0.80018536  0.08926973     0.62100
F1885       F  0.08510651  0.69884178  0.15467151    -0.23100
F1886       F  0.06877274  0.72283665  0.16259242    -0.20400
F1887       F  0.09938440  0.72618631  0.19375927    -0.20100
F1888       F  0.18308724  0.79069499  0.06945954    -0.20100
F1889       F  0.19088729  0.81567431  0.11052720    -0.20500
F1890       F  0.16606711  0.81463531  0.07207968    -0.23100
Fe1891     Fe  0.21405917  0.78013784  0.69693379     1.65800
Fe1892     Fe  0.24734470  0.75122619  0.68769689     1.73200
Fe1893     Fe  0.23101494  0.77475373  0.62474564     1.54400
O1894       O  0.19393167  0.76633004  0.62253899    -0.81900
O1895       O  0.27976128  0.77230501  0.66188895    -0.80200
O1896       O  0.18242329  0.76552609  0.67073873    -0.84400
O1897       O  0.22940420  0.81463162  0.67475616    -0.79200
O1898       O  0.21822344  0.73716750  0.61582500    -0.81000
O1899       O  0.26499471  0.77715467  0.72302268    -0.83700
C1900       C  0.24064724  0.82525578  0.64983762     0.97000
C1901       C  0.17767316  0.76302868  0.64225867     1.04500
O1902       O  0.23087782  0.76869447  0.66971983    -1.12700
O1903       O  0.21656682  0.72695930  0.71520830    -0.75200
O1904       O  0.19612395  0.74700599  0.72219619    -0.78600
O1905       O  0.24417696  0.81325765  0.62912997    -0.79300
C1906       C  0.19850156  0.72811521  0.72632842     0.95900
O1907       O  0.24362017  0.79646004  0.72660990    -0.77300
O1908       O  0.23247524  0.72371764  0.65437671    -0.82500
C1909       C  0.28426153  0.78223970  0.63505647     0.98500
C1910       C  0.22166353  0.72044188  0.62842770     1.04500
O1911       O  0.26781537  0.78390903  0.61945140    -0.78100
C1912       C  0.26163470  0.79377429  0.73464528     1.02800
Fe1913     Fe  0.21243287  0.93170808  0.69686009     1.65800
Fe1914     Fe  0.24452747  0.49249156  0.69065574     1.73200
Fe1915     Fe  0.23197869  0.95898232  0.62583238     1.54400
O1916       O  0.24175823  0.93124533  0.62942064    -0.81900
O1917       O  0.23096447  0.50764798  0.65880820    -0.80200
O1918       O  0.22715439  0.91343817  0.67519270    -0.84400
O1919       O  0.18165962  0.91622878  0.66870370    -0.79200
O1920       O  0.26938267  0.98516837  0.62322992    -0.81000
O1921       O  0.21311474  0.48289635  0.71717454    -0.83700
C1922       C  0.17755406  0.91731570  0.64030267     0.97000
C1923       C  0.23853579  0.91530876  0.65057399     1.04500
O1924       O  0.23102429  0.96225936  0.67104012    -1.12700
O1925       O  0.26087320  0.48191773  0.72493382    -0.75200
O1926       O  0.24102678  0.94337240  0.72818804    -0.78600
O1927       O  0.19436745  0.93212387  0.62162228    -0.79300
C1928       C  0.26027882  0.96397983  0.73589188     0.95900
O1929       O  0.19539237  0.94584483  0.72205329    -0.77300
O1930       O  0.27761810  0.50584436  0.66648093    -0.82500
C1931       C  0.22238364  0.50319353  0.63155666     0.98500
C1932       C  0.28320897  0.50082539  0.64075663     1.04500
O1933       O  0.22302861  0.98667827  0.61713424    -0.78100
C1934       C  0.19964868  0.96738929  0.72911361     1.02800
Fe1935     Fe  0.07644504  0.79037990  0.69240688     1.65800
Fe1936     Fe  0.51118160  0.75308319  0.68627648     1.73200
Fe1937     Fe  0.04689296  0.77352642  0.62245289     1.54400
O1938       O  0.07448055  0.81126108  0.61925601    -0.81900
O1939       O  0.49995413  0.72049998  0.66237840    -0.80200
O1940       O  0.09025045  0.82264980  0.66654104    -0.84400
O1941       O  0.09383376  0.77686105  0.66613451    -0.79200
O1942       O  0.02054609  0.78384118  0.61809332    -0.81000
O1943       O  0.02465622  0.73790248  0.72159401    -0.83700
C1944       C  0.09016366  0.76596563  0.64056626     0.97000
C1945       C  0.08877382  0.82769521  0.63853710     1.04500
O1946       O  0.04534278  0.77279488  0.66804385    -1.12700
O1947       O  0.02143601  0.78425816  0.71789933    -0.75200
O1948       O  0.06300012  0.80594431  0.72209475    -0.78600
O1949       O  0.07309761  0.76278950  0.62172874    -0.79300
C1950       C  0.04169856  0.80217591  0.72896622     0.95900
O1951       O  0.06623003  0.76007678  0.72081836    -0.77300
O1952       O  0.49522331  0.76507810  0.65360575    -0.82500
C1953       C  0.50316999  0.71676325  0.63469361     0.98500
C1954       C  0.50136922  0.77737435  0.62843459     1.04500
O1955       O  0.01967820  0.73612321  0.61868018    -0.78100
C1956       C  0.04578108  0.74161698  0.73034682     1.02800
Fe1957     Fe  0.23802730  0.61975189  0.52335588     1.65800
Fe1958     Fe  0.17491965  0.58797920  0.51577987     1.73200
Fe1959     Fe  0.21129650  0.60484914  0.95360421     1.54400
O1960       O  0.23317257  0.64414815  0.95324074    -0.81900
O1961       O  0.16044656  0.55755598  0.98678734    -0.80200
O1962       O  0.25730936  0.64956039  0.49356593    -0.84400
O1963       O  0.25184678  0.59979113  0.50399195    -0.79200
O1964       O  0.17985109  0.60721591  0.94471879    -0.81000
O1965       O  0.18286420  0.56641519  0.54587758    -0.83700
C1966       C  0.25523237  0.59826614  0.97644275     0.97000
C1967       C  0.25122620  0.65813038  0.97124762     1.04500
O1968       O  0.20816625  0.60415668  0.49701580    -1.12700
O1969       O  0.18542238  0.61674391  0.54778771    -0.75200
O1970       O  0.22704928  0.64135931  0.54517077    -0.78600
O1971       O  0.24325264  0.60196478  0.95513075    -0.79300
C1972       C  0.20597958  0.63694722  0.55421766     0.95900
O1973       O  0.22313305  0.59200857  0.55677039    -0.77300
O1974       O  0.16193784  0.60550565  0.98924243    -0.82500
C1975       C  0.16776499  0.55128223  0.96322691     0.98500
C1976       C  0.16339563  0.60830077  0.96021379     1.04500
O1977       O  0.18897977  0.56586474  0.95084256    -0.78100
C1978       C  0.20263914  0.57126547  0.56044168     1.02800
Fe1979     Fe  0.38046903  0.61304007  0.53410696     1.65800
Fe1980     Fe  0.41406213  0.58444134  0.52621568     1.73200
Fe1981     Fe  0.39562697  0.60621219  0.96023107     1.54400
O1982       O  0.35817132  0.59548122  0.96023878    -0.81900
O1983       O  0.44420546  0.60334299  0.99368616    -0.80200
O1984       O  0.34692933  0.59414792  0.51103105    -0.84400
O1985       O  0.39214006  0.64500220  0.50778596    -0.79200
O1986       O  0.38430169  0.56876139  0.95439175    -0.81000
O1987       O  0.43296644  0.61284747  0.55819598    -0.83700
C1988       C  0.40616637  0.65824329  0.98076697     0.97000
C1989       C  0.34367188  0.59561509  0.98018784     1.04500
O1990       O  0.39644022  0.60030596  0.50750516    -1.12700
O1991       O  0.38574188  0.56229823  0.55693525    -0.75200
O1992       O  0.36641688  0.58325568  0.56438742    -0.78600
O1993       O  0.40630228  0.64390428  0.96048346    -0.79300
C1994       C  0.36934725  0.56492222  0.57007905     0.95900
O1995       O  0.41217639  0.63302471  0.56001009    -0.77300
O1996       O  0.39503414  0.55573952  0.99674427    -0.82500
C1997       C  0.44888619  0.61425305  0.96760524     0.98500
C1998       C  0.38491040  0.55168719  0.97025435     1.04500
O1999       O  0.43281079  0.61749783  0.95341668    -0.78100
C2000       C  0.43013508  0.63029799  0.56823376     1.02800
Fe2001     Fe  0.37971172  0.76073144  0.52906040     1.65800
Fe2002     Fe  0.41437896  0.82447469  0.52057652     1.73200
Fe2003     Fe  0.39226262  0.78830443  0.95820170     1.54400
O2004       O  0.39939858  0.75910625  0.95789706    -0.81900
O2005       O  0.39907409  0.84027463  0.99524969    -0.80200
O2006       O  0.39488082  0.74384437  0.50584530    -0.84400
O2007       O  0.34766629  0.74384887  0.50249123    -0.79200
O2008       O  0.42974904  0.81251054  0.95072733    -0.81000
O2009       O  0.38741013  0.81588328  0.55488476    -0.83700
C2010       C  0.33923392  0.74845093  0.97935387     0.97000
C2011       C  0.39935256  0.74417332  0.97835186     1.04500
O2012       O  0.39554918  0.79073477  0.50219998    -1.12700
O2013       O  0.43521902  0.81491589  0.54850595    -0.75200
O2014       O  0.41004702  0.77388123  0.55858202    -0.78600
O2015       O  0.35407439  0.76355664  0.95914683    -0.79300
C2016       C  0.43073665  0.79455382  0.56153450     0.95900
O2017       O  0.36269913  0.77409597  0.55571963    -0.77300
O2018       O  0.44540697  0.83772178  0.99078389    -0.82500
C2019       C  0.38862788  0.83566099  0.96902305     0.98500
C2020       C  0.44800334  0.83057128  0.96456809     1.04500
O2021       O  0.38504945  0.81716455  0.95297099    -0.78100
C2022       C  0.36822835  0.79560052  0.56479747     1.02800
Fe2023     Fe  0.40152467  0.95104226  0.86173007     1.65800
Fe2024     Fe  0.33770053  0.91854751  0.85845572     1.73200
Fe2025     Fe  0.37219455  0.93465742  0.79160614     1.54400
O2026       O  0.39867247  0.97291730  0.78847772    -0.81900
O2027       O  0.32228792  0.88679556  0.83140238    -0.80200
O2028       O  0.41677420  0.98290921  0.83482037    -0.84400
O2029       O  0.41762187  0.93547916  0.83722917    -0.79200
O2030       O  0.34540551  0.94444538  0.78577729    -0.81000
O2031       O  0.34742374  0.89943360  0.89003117    -0.83700
C2032       C  0.41509465  0.92592704  0.81105286     0.97000
C2033       C  0.41358954  0.98890185  0.80785077     1.04500
O2034       O  0.37040039  0.93464744  0.83721962    -1.12700
O2035       O  0.34850463  0.94838162  0.88809632    -0.75200
O2036       O  0.39005860  0.96883199  0.89014497    -0.78600
O2037       O  0.39935577  0.92467391  0.79119065    -0.79300
C2038       C  0.36943318  0.96604388  0.89812361     0.95900
O2039       O  0.38912960  0.92099253  0.89129676    -0.77300
O2040       O  0.32419116  0.93557648  0.82945437    -0.82500
C2041       C  0.32695766  0.88110558  0.80554242     0.98500
C2042       C  0.32870161  0.94428869  0.80209865     1.04500
O2043       O  0.34541201  0.89674732  0.78915608    -0.78100
C2044       C  0.36810750  0.90260017  0.89985961     1.02800
Fe2045     Fe  0.04294752  0.94587624  0.85896102     1.65800
Fe2046     Fe  0.07933543  0.92104810  0.85303847     1.73200
Fe2047     Fe  0.05941366  0.93846105  0.78852226     1.54400
O2048       O  0.02221363  0.93059932  0.78815346    -0.81900
O2049       O  0.11085950  0.94354960  0.82726498    -0.80200
O2050       O  0.00986069  0.92233993  0.83671533    -0.84400
O2051       O  0.04978981  0.97501621  0.82964413    -0.79200
O2052       O  0.04602333  0.90072063  0.78354780    -0.81000
O2053       O  0.09497434  0.94909004  0.88691472    -0.83700
C2054       C  0.06262288  0.98594841  0.80584905     0.97000
C2055       C  0.00517783  0.92337798  0.80838069     1.04500
O2056       O  0.06076117  0.93511241  0.83349971    -1.12700
O2057       O  0.05010460  0.89625072  0.88138949    -0.75200
O2058       O  0.03291828  0.91854584  0.89265179    -0.78600
O2059       O  0.07276829  0.97671774  0.79015871    -0.79300
C2060       C  0.03543243  0.89979273  0.89724910     0.95900
O2061       O  0.07506825  0.97006966  0.88210765    -0.77300
O2062       O  0.06565565  0.89225389  0.82075259    -0.82500
C2063       C  0.11377755  0.94887608  0.79881336     0.98500
C2064       C  0.05220519  0.88616572  0.79627093     1.04500
O2065       O  0.09605847  0.94682162  0.78175279    -0.78100
C2066       C  0.09248821  0.96767120  0.89349537     1.02800
Fe2067     Fe  0.03690713  0.59040711  0.85810581     1.65800
Fe2068     Fe  0.07865403  0.65254784  0.85123286     1.73200
Fe2069     Fe  0.05408813  0.61643017  0.78779105     1.54400
O2070       O  0.06287093  0.58883824  0.78908826    -0.81900
O2071       O  0.06873163  0.67120800  0.81950706    -0.80200
O2072       O  0.03809793  0.56599154  0.82771847    -0.84400
O2073       O  0.00487784  0.58570409  0.83819955    -0.79200
O2074       O  0.09171181  0.64288525  0.78047925    -0.81000
O2075       O  0.04949498  0.64874040  0.87795176    -0.83700
C2076       C  0.99901782  0.58202574  0.80990102     0.97000
C2077       C  0.05108049  0.56841269  0.80436039     1.04500
O2078       O  0.05700735  0.62000242  0.83228224    -1.12700
O2079       O  0.09100865  0.63648939  0.88462135    -0.75200
O2080       O  0.06841444  0.59470020  0.87863467    -0.78600
O2081       O  0.01564443  0.58950637  0.78913254    -0.79300
C2082       C  0.08737653  0.61438193  0.88919390     0.95900
O2083       O  0.03197608  0.60899596  0.89329671    -0.77300
O2084       O  0.10946477  0.66037829  0.82498057    -0.82500
C2085       C  0.05448281  0.66497729  0.79589186     0.98500
C2086       C  0.11105675  0.65755062  0.79641692     1.04500
O2087       O  0.04535812  0.64373278  0.78331185    -0.78100
C2088       C  0.03371137  0.63017408  0.89418200     1.02800
C2089       C  0.03435658  0.50146039  0.79689172    -0.06000
C2090       C  0.05815135  0.50459866  0.79916933     0.00000
C2091       C  0.07979816  0.52892540  0.79711728    -0.08600
C2092       C  0.07665756  0.54977601  0.79465878    -0.06000
C2093       C  0.05268667  0.54657488  0.79588819    -0.00100
C2094       C  0.03109552  0.52195233  0.79521055    -0.08500
C2095       C  0.00418154  0.51578260  0.79357188     0.61900
H2096       H  0.02243633  0.98704939  0.79603680     0.12500
H2097       H  0.09290765  0.56873750  0.79454889     0.12600
C2098       C  0.10575662  0.53276210  0.80000381     0.62100
F2099       F  0.99245580  0.50099869  0.76814976    -0.23100
F2100       F  0.00230237  0.53683657  0.79096958    -0.20400
F2101       F  0.99154608  0.50239169  0.81972392    -0.20100
F2102       F  0.10956461  0.52074532  0.77619229    -0.20100
F2103       F  0.10801523  0.52276081  0.82775348    -0.20500
F2104       F  0.12431297  0.55807666  0.79883363    -0.23100
C2105       C  0.44209054  0.52869008  0.77700283    -0.06000
C2106       C  0.42873840  0.52101961  0.80469982     0.00000
C2107       C  0.43428661  0.53923592  0.82739399    -0.08600
C2108       C  0.45714073  0.56210084  0.82561558    -0.06000
C2109       C  0.47371731  0.56745665  0.80116815    -0.00100
C2110       C  0.46432018  0.55253653  0.77433797    -0.08500
C2111       C  0.97547996  0.55904441  0.74445144     0.61900
H2112       H  0.43642991  0.51522978  0.75859859     0.12500
H2113       H  0.46308908  0.57474606  0.84499976     0.12600
C2114       C  0.41781561  0.53437015  0.85508666     0.62100
F2115       F  0.95681270  0.55011038  0.72219173    -0.23100
F2116       F  0.99111024  0.55011788  0.73849798    -0.20400
F2117       F  0.98881462  0.58509132  0.74212233    -0.20100
F2118       F  0.42848281  0.53022973  0.88092256    -0.20100
F2119       F  0.39383026  0.51381972  0.85091546    -0.20500
F2120       F  0.41578327  0.55519365  0.85994847    -0.23100
C2121       C  0.44785495  0.92671929  0.77874873    -0.06000
C2122       C  0.43199467  0.91661277  0.80426071     0.00000
C2123       C  0.43657915  0.90256332  0.82660822    -0.08600
C2124       C  0.45939865  0.90341930  0.82597363    -0.06000
C2125       C  0.47734162  0.91678289  0.80294451    -0.00100
C2126       C  0.47032311  0.92645772  0.77716862    -0.08500
C2127       C  0.98986920  0.93839808  0.74608809     0.61900
H2128       H  0.44356883  0.93661338  0.76125653     0.12500
H2129       H  0.46361919  0.89433346  0.84464483     0.12600
C2130       C  0.41850304  0.88732520  0.85233930     0.62100
F2131       F  0.47425731  0.94257658  0.72546810    -0.23100
F2132       F  0.99214802  0.91901121  0.73483812    -0.20400
F2133       F  0.01338684  0.95888673  0.75227114    -0.20100
F2134       F  0.39512241  0.88429342  0.84794476    -0.20100
F2135       F  0.42834328  0.89913206  0.88008729    -0.20500
F2136       F  0.41523030  0.86349216  0.85377401    -0.23100
C2137       C  0.35968213  0.84254020  0.93647470    -0.06000
C2138       C  0.38081874  0.85285324  0.95602068     0.00000
C2139       C  0.39503975  0.87937561  0.96050114    -0.08600
C2140       C  0.38848847  0.89456099  0.94350177    -0.06000
C2141       C  0.36877407  0.88445557  0.92195457    -0.00100
C2142       C  0.35328060  0.85789906  0.91929574    -0.08500
C2143       C  0.33089218  0.84579494  0.89752675     0.61900
H2144       H  0.34865931  0.82224475  0.93395939     0.12500
H2145       H  0.39960950  0.91487485  0.94581624     0.12600
C2146       C  0.41791445  0.89206092  0.98161905     0.62100
F2147       F  0.31879161  0.81971219  0.89826772    -0.23100
F2148       F  0.33865401  0.85391356  0.86768290    -0.20400
F2149       F  0.31373558  0.85229039  0.90583670    -0.20100
F2150       F  0.43501159  0.88545657  0.97335974    -0.20100
F2151       F  0.40710911  0.88135486  0.51134185    -0.20500
F2152       F  0.43000413  0.91813403  0.98005077    -0.23100
C2153       C  0.00630016  0.85548608  0.91385081    -0.06000
C2154       C  0.01952784  0.88115492  0.92114669     0.00000
C2155       C  0.01374550  0.88876266  0.94867824    -0.08600
C2156       C  0.49173818  0.86753072  0.96131575    -0.06000
C2157       C  0.47296678  0.84453440  0.94881067    -0.00100
C2158       C  0.47845873  0.83627527  0.92114427    -0.08500
C2159       C  0.46155718  0.80997308  0.90833247     0.61900
H2160       H  0.01162222  0.84954763  0.89359829     0.12500
H2161       H  0.48876523  0.87342299  0.98329863     0.12600
C2162       C  0.03043333  0.91450638  0.96272861     0.62100
F2163       F  0.47341437  0.80471138  0.88566980    -0.23100
F2164       F  0.44016625  0.80789162  0.89550085    -0.20400
F2165       F  0.45511852  0.79205054  0.93151617    -0.20100
F2166       F  0.01887982  0.92833440  0.96001554    -0.20100
F2167       F  0.05375590  0.92778130  0.94909427    -0.20500
F2168       F  0.03422236  0.91156957  0.99360487    -0.23100
C2169       C  0.47693688  0.63275898  0.92204303    -0.06000
C2170       C  0.47336290  0.62233374  0.95203931     0.00000
C2171       C  0.49229713  0.61835493  0.96482101    -0.08600
C2172       C  0.01196335  0.62081012  0.94377481    -0.06000
C2173       C  0.01591197  0.63206837  0.91453432    -0.00100
C2174       C  0.49714942  0.63713749  0.90354009    -0.08500
C2175       C  0.49916902  0.64703219  0.87078023     0.61900
H2176       H  0.46314851  0.63659562  0.91248146     0.12500
H2177       H  0.02477976  0.61500480  0.95159169     0.12600
C2178       C  0.49188029  0.60975692  0.99794185     0.62100
F2179       F  0.47993100  0.65112829  0.86334292    -0.23100
F2180       F  0.00263671  0.63724238  0.84961983    -0.20400
F2181       F  0.02636264  0.67524940  0.87178638    -0.20100
F2182       F  0.47223749  0.58515190  0.00199990    -0.20100
F2183       F  0.48771770  0.61428975  0.52010412    -0.20500
F2184       F  0.00862051  0.59966537  0.99995575    -0.23100
C2185       C  0.38614980  0.51266761  0.96659809    -0.06000
C2186       C  0.37516380  0.52644606  0.95662338     0.00000
C2187       C  0.35671974  0.51645110  0.93286852    -0.08600
C2188       C  0.35683335  0.99648965  0.91092761    -0.06000
C2189       C  0.37033302  0.98494338  0.91911466    -0.00100
C2190       C  0.38633476  0.99344952  0.94522535    -0.08500
C2191       C  0.40050843  0.98092078  0.95630867     0.61900
H2192       H  0.39930821  0.51956514  0.98566990     0.12500
H2193       H  0.34448436  0.98946397  0.89107724     0.12600
C2194       C  0.34075455  0.52759864  0.92448779     0.62100
F2195       F  0.40731261  0.98597558  0.98698185    -0.23100
F2196       F  0.42203335  0.98995019  0.93914265    -0.20400
F2197       F  0.38581335  0.95497075  0.95350765    -0.20100
F2198       F  0.35448133  0.54934310  0.90697145    -0.20100
F2199       F  0.33257540  0.53308886  0.95090145    -0.20500
F2200       F  0.31974180  0.51082303  0.90766739    -0.23100
C2201       C  0.39757094  0.68627377  0.94957201    -0.06000
C2202       C  0.41262403  0.68400394  0.97219543     0.00000
C2203       C  0.42789780  0.70463943  0.99149795    -0.08600
C2204       C  0.42459219  0.72529995  0.99084569    -0.06000
C2205       C  0.40712415  0.72616976  0.97092887    -0.00100
C2206       C  0.39440187  0.70715043  0.94870965    -0.08500
C2207       C  0.37589026  0.70775002  0.92620928     0.61900
H2208       H  0.38615843  0.67032816  0.93486186     0.12500
H2209       H  0.43477563  0.74029622  0.00727182     0.12600
C2210       C  0.44703903  0.70518948  0.01395586     0.62100
F2211       F  0.36551882  0.68736278  0.90667086    -0.23100
F2212       F  0.38796305  0.72951429  0.90834997    -0.20400
F2213       F  0.35682537  0.70678208  0.43977921    -0.20100
F2214       F  0.45081460  0.68535711  0.00997994    -0.20100
F2215       F  0.43919358  0.70428725  0.04375583    -0.20500
F2216       F  0.46982197  0.72739308  0.00969451    -0.23100
C2217       C  0.13127589  0.59306198  0.91942051    -0.06000
C2218       C  0.14382059  0.61037782  0.94302832     0.00000
C2219       C  0.13739074  0.62860693  0.94910223    -0.08600
C2220       C  0.11834908  0.62868673  0.93159268    -0.06000
C2221       C  0.10595295  0.61158094  0.90776413    -0.00100
C2222       C  0.11258356  0.59339395  0.90134052    -0.08500
C2223       C  0.10113822  0.57521303  0.87470271     0.61900
H2224       H  0.13636426  0.57915268  0.91521761     0.12500
H2225       H  0.11326985  0.64255170  0.93605064     0.12600
C2226       C  0.15189050  0.64913697  0.97212386     0.62100
F2227       F  0.11283221  0.56173243  0.87045073    -0.23100
F2228       F  0.10365232  0.58864345  0.84786266    -0.20400
F2229       F  0.07606261  0.55796169  0.88014025    -0.20100
F2230       F  0.17669034  0.66269058  0.96320838    -0.20100
F2231       F  0.14968548  0.63863251  0.00110537    -0.20500
F2232       F  0.14341783  0.66572996  0.97358080    -0.23100
C2233       C  0.12406893  0.52086531  0.94929531    -0.06000
C2234       C  0.14912915  0.52720777  0.94810917     0.00000
C2235       C  0.15503908  0.51158275  0.93137023    -0.08600
C2236       C  0.13561807  0.99272818  0.91561510    -0.06000
C2237       C  0.11096240  0.98788271  0.91437645    -0.00100
C2238       C  0.10477595  0.50048695  0.93324864    -0.08500
C2239       C  0.07907247  0.99998329  0.93190568     0.61900
H2240       H  0.11973377  0.53304164  0.96177278     0.12500
H2241       H  0.13996287  0.98089057  0.90243178     0.12600
C2242       C  0.18150240  0.51653980  0.93030849     0.62100
F2243       F  0.07627498  0.50908322  0.95926489    -0.23100
F2244       F  0.06115239  0.97510941  0.93833187    -0.20400
F2245       F  0.07230253  0.50374768  0.90840647    -0.20100
F2246       F  0.19085211  0.51872070  0.95985872    -0.20100
F2247       F  0.19679798  0.53851854  0.91386968    -0.20500
F2248       F  0.18216188  0.99866639  0.91757444    -0.23100
C2249       C  0.27255051  0.70032987  0.99266547    -0.06000
C2250       C  0.26735551  0.68565372  0.96630105     0.00000
C2251       C  0.28227077  0.69673010  0.93985552    -0.08600
C2252       C  0.30540716  0.71964856  0.94334531    -0.06000
C2253       C  0.31237127  0.73200669  0.97181006    -0.00100
C2254       C  0.29419640  0.72416109  0.99504120    -0.08500
C2255       C  0.29762483  0.73960714  0.02332433     0.61900
H2256       H  0.26057001  0.69231678  0.01254146     0.12500
H2257       H  0.31884459  0.72676915  0.92488337     0.12600
C2258       C  0.27413492  0.68433971  0.90874266     0.62100
F2259       F  0.27623335  0.74046901  0.02780044    -0.23100
F2260       F  0.31744236  0.76426220  0.02034394    -0.20400
F2261       F  0.30859730  0.72811590  0.54469209    -0.20100
F2262       F  0.25099144  0.68089513  0.90110941    -0.20100
F2263       F  0.27225313  0.66121059  0.90941466    -0.20500
F2264       F  0.29089564  0.69908725  0.88592941    -0.23100
C2265       C  0.27551470  0.57372868  0.98685273    -0.06000
C2266       C  0.27488297  0.59258727  0.96915772     0.00000
C2267       C  0.29531281  0.60833303  0.94953852    -0.08600
C2268       C  0.31663181  0.60613706  0.95058199    -0.06000
C2269       C  0.31824399  0.58930208  0.97107275    -0.00100
C2270       C  0.29681332  0.57161857  0.98787087    -0.08500
C2271       C  0.29577613  0.55074066  0.00773362     0.61900
H2272       H  0.25965798  0.56130930  0.00130286     0.12500
H2273       H  0.33087224  0.61219009  0.43706630     0.12600
C2274       C  0.29476857  0.62342799  0.42767786     0.62100
F2275       F  0.27501240  0.52787669  0.99943004    -0.23100
F2276       F  0.29369310  0.55508027  0.03828439    -0.20400
F2277       F  0.31669370  0.54886346  0.00446846    -0.20100
F2278       F  0.29507750  0.64189328  0.44524488    -0.20100
F2279       F  0.27584975  0.61878015  0.90964422    -0.20500
F2280       F  0.31605299  0.63475439  0.40964820    -0.23100
C2281       C  0.44492628  0.78446856  0.60995000    -0.06000
C2282       C  0.45061541  0.79424050  0.57995989     0.00000
C2283       C  0.47380559  0.80061257  0.56693051    -0.08600
C2284       C  0.49000467  0.79549115  0.58398933    -0.06000
C2285       C  0.48400156  0.78452540  0.61372173    -0.00100
C2286       C  0.46136783  0.77998297  0.62756035    -0.08500
C2287       C  0.45403162  0.77040208  0.66050751     0.61900
H2288       H  0.42704117  0.77988188  0.61925442     0.12500
H2289       H  0.50738368  0.79958754  0.57366888     0.12600
C2290       C  0.48103202  0.81193757  0.53469171     0.62100
F2291       F  0.43297531  0.77052764  0.66963374    -0.23100
F2292       F  0.47334272  0.78577790  0.68041071    -0.20400
F2293       F  0.44864231  0.74582120  0.66320124    -0.20100
F2294       F  0.48349714  0.83540581  0.53392792    -0.20100
F2295       F  0.46279950  0.79637183  0.51375615    -0.20500
F2296       F  0.50359163  0.81503213  0.52556537    -0.23100
C2297       C  0.46088245  0.67929495  0.63039220    -0.06000
C2298       C  0.48605046  0.69162412  0.62137390     0.00000
C2299       C  0.49318599  0.68100249  0.59795829    -0.08600
C2300       C  0.47434498  0.65966091  0.58251178    -0.06000
C2301       C  0.44895088  0.64907830  0.58947112    -0.00100
C2302       C  0.44208312  0.65821853  0.61475954    -0.08500
C2303       C  0.41502569  0.64641622  0.62488908     0.61900
H2304       H  0.45566474  0.68739156  0.64847983     0.12500
H2305       H  0.47922086  0.65209458  0.56345463     0.12600
C2306       C  0.02223075  0.69372244  0.59366133     0.62100
F2307       F  0.41349293  0.65419654  0.65395334    -0.23100
F2308       F  0.40340146  0.62040528  0.62584245    -0.20400
F2309       F  0.40227873  0.65334761  0.60465024    -0.20100
F2310       F  0.03574622  0.69950274  0.62091096    -0.20100
F2311       F  0.03148250  0.71525978  0.57549435    -0.20500
F2312       F  0.02578414  0.67651501  0.57833238    -0.23100
C2313       C  0.02808687  0.83222372  0.73856899    -0.06000
C2314       C  0.04071778  0.82040834  0.74931237     0.00000
C2315       C  0.05319374  0.82728196  0.77806540    -0.08600
C2316       C  0.05530357  0.84799741  0.79332242    -0.06000
C2317       C  0.04489256  0.86176661  0.78116501    -0.00100
C2318       C  0.02947354  0.85257631  0.75417550    -0.08500
C2319       C  0.01451815  0.86379185  0.74130007     0.61900
H2320       H  0.01798594  0.82606122  0.71691990     0.12500
H2321       H  0.06604189  0.85406735  0.81450788     0.12600
C2322       C  0.06374389  0.81245249  0.79291858     0.62100
F2323       F  0.99796496  0.84901671  0.71837318    -0.23100
F2324       F  0.03049701  0.88745798  0.72869075    -0.20400
F2325       F  0.00051354  0.86543580  0.76441902    -0.20100
F2326       F  0.08413043  0.81614933  0.77646369    -0.20100
F2327       F  0.04534583  0.78708779  0.79348552    -0.20500
F2328       F  0.07155259  0.81974564  0.82291860    -0.23100
C2329       C  0.02773021  0.69736781  0.74705835    -0.06000
C2330       C  0.04664025  0.72274312  0.75078679     0.00000
C2331       C  0.06657196  0.72899327  0.77187910    -0.08600
C2332       C  0.06760036  0.70940301  0.78689925    -0.06000
C2333       C  0.04966352  0.68393223  0.78160080    -0.00100
C2334       C  0.02881679  0.67768386  0.76197755    -0.08500
C2335       C  0.50620261  0.65085236  0.75864370     0.61900
H2336       H  0.50978164  0.69259066  0.73299277     0.12500
H2337       H  0.08333642  0.71401406  0.80197574     0.12600
C2338       C  0.08670751  0.75605382  0.77903943     0.62100
F2339       F  0.48533473  0.64895941  0.74433441    -0.23100
F2340       F  0.99925054  0.63737421  0.78331538    -0.20400
F2341       F  0.51553691  0.64013153  0.73961870    -0.20100
F2342       F  0.10062211  0.75753269  0.80490877    -0.20100
F2343       F  0.10305894  0.76683740  0.75466422    -0.20500
F2344       F  0.07561723  0.76977470  0.78467584    -0.23100
C2345       C  0.19605691  0.51053322  0.59398308    -0.06000
C2346       C  0.21515357  0.52046494  0.61651485    -0.02700
C2347       C  0.22767405  0.54674736  0.62281623    -0.08600
C2348       C  0.22102874  0.56191730  0.60574206    -0.06000
C2349       C  0.20315827  0.55234440  0.58185139    -0.00100
C2350       C  0.18984886  0.52596288  0.57638470    -0.08500
C2351       C  0.16994344  0.51415148  0.55135502     0.61900
H2352       H  0.18637000  0.49046912  0.58968654     0.12500
H2353       H  0.23074381  0.58198099  0.61004119     0.12600
C2354       C  0.25464373  0.06227520  0.64268181     0.62100
F2355       F  0.15983108  0.48836674  0.54957920    -0.23100
F2356       F  0.18027621  0.52478701  0.52307736    -0.20400
F2357       F  0.15060605  0.51809120  0.55745912    -0.20100
F2358       F  0.26695522  0.08834891  0.64050895    -0.20100
F2359       F  0.26744007  0.55411915  0.63864800    -0.20500
F2360       F  0.24061964  0.55096094  0.67531917    -0.23100
C2361       C  0.34876538  0.55487415  0.62035923    -0.06000
C2362       C  0.35213213  0.54597067  0.59258512     0.00000
C2363       C  0.33599983  0.52041987  0.58482662    -0.08600
C2364       C  0.31485308  0.50557033  0.60320850    -0.06000
C2365       C  0.30936665  0.51552458  0.62876641    -0.00100
C2366       C  0.32791146  0.53990193  0.63920928    -0.08500
C2367       C  0.32583828  0.55063532  0.66932724     0.61900
H2368       H  0.36197472  0.57432863  0.62625513     0.12500
H2369       H  0.30158242  0.48635368  0.59647523     0.12600
C2370       C  0.34009969  0.50937696  0.55623605     0.62100
F2371       F  0.34727845  0.57359847  0.67572172    -0.23100
F2372       F  0.32247536  0.53414249  0.69326118    -0.20400
F2373       F  0.30986936  0.05754953  0.66655964    -0.20100
F2374       F  0.36327736  0.51159472  0.55798723    -0.20100
F2375       F  0.33911997  0.52209870  0.53027527    -0.20500
F2376       F  0.32211767  0.48403911  0.55308626    -0.23100
C2377       C  0.14767257  0.97529327  0.76113699    -0.06000
C2378       C  0.13845331  0.95673955  0.78466363     0.00000
C2379       C  0.15189946  0.94457963  0.79235317    -0.08600
C2380       C  0.17294358  0.95029380  0.77480216    -0.06000
C2381       C  0.18122455  0.96763483  0.75011969    -0.00100
C2382       C  0.16914540  0.98126038  0.74394720    -0.08500
C2383       C  0.16494130  0.48584625  0.70547166     0.61900
H2384       H  0.13754180  0.98473474  0.75587742     0.12500
H2385       H  0.18276661  0.94045110  0.77951536     0.12600
C2386       C  0.14360875  0.92463775  0.81781819     0.62100
F2387       F  0.14678407  0.49164445  0.69857277    -0.23100
F2388       F  0.16532775  0.47152802  0.68175950    -0.20400
F2389       F  0.18787125  0.50818469  0.70708434    -0.20100
F2390       F  0.11910709  0.90540931  0.81273592    -0.20100
F2391       F  0.14551879  0.93545816  0.84599399    -0.20500
F2392       F  0.15828341  0.91392983  0.81929006    -0.23100
C2393       C  0.28741500  0.94046977  0.79714361    -0.06000
C2394       C  0.31266693  0.95315966  0.78823122     0.00000
C2395       C  0.32134889  0.97301780  0.76596340    -0.08600
C2396       C  0.30372877  0.97726185  0.75087834    -0.06000
C2397       C  0.27807770  0.96269206  0.75766905    -0.00100
C2398       C  0.26995254  0.94507514  0.78251624    -0.08500
C2399       C  0.24304446  0.93113270  0.79380132     0.61900
H2400       H  0.28104750  0.92589509  0.81480463     0.12500
H2401       H  0.30582905  0.48880919  0.73116201     0.12600
C2402       C  0.34893501  0.98986886  0.75810888     0.62100
F2403       F  0.24103342  0.92044831  0.82269595    -0.23100
F2404       F  0.22770621  0.91196143  0.77391534    -0.20400
F2405       F  0.23463423  0.94772505  0.79581815    -0.20100
F2406       F  0.35682927  0.97665561  0.74130024    -0.20100
F2407       F  0.36134430  0.49929503  0.78208960    -0.20500
F2408       F  0.34972445  0.50988547  0.73822681    -0.23100
C2409       C  0.13214272  0.89644438  0.64617240    -0.06000
C2410       C  0.15222660  0.89906673  0.62912507     0.00000
C2411       C  0.14809351  0.88029850  0.60777824    -0.08600
C2412       C  0.12458056  0.85774331  0.60755551    -0.06000
C2413       C  0.10590607  0.85375738  0.62831695    -0.00100
C2414       C  0.10874126  0.87404432  0.64574654    -0.08500
C2415       C  0.08824524  0.87205250  0.66600367     0.61900
H2416       H  0.13534885  0.91119281  0.66191278     0.12500
H2417       H  0.12176113  0.84198917  0.59403515     0.12600
C2418       C  0.16899225  0.88306158  0.58754824     0.62100
F2419       F  0.08559947  0.89255509  0.66028234    -0.23100
F2420       F  0.09473114  0.87212000  0.69658904    -0.20400
F2421       F  0.06526037  0.85040879  0.66053939    -0.20100
F2422       F  0.18878874  0.88597390  0.60551709    -0.20100
F2423       F  0.17723060  0.90395571  0.56842138    -0.20500
F2424       F  0.16106001  0.86217697  0.56928942    -0.23100
C2425       C  0.32055078  0.77661417  0.62883836    -0.06000
C2426       C  0.30896800  0.79017377  0.62044089     0.00000
C2427       C  0.32015748  0.80901483  0.59683666    -0.08600
C2428       C  0.34086643  0.81167712  0.58057246    -0.06000
C2429       C  0.35071811  0.79627375  0.58714227    -0.00100
C2430       C  0.34121686  0.77934912  0.61273250    -0.08500
C2431       C  0.35220492  0.76344767  0.62266520     0.61900
H2432       H  0.31235610  0.76255172  0.64702705     0.12500
H2433       H  0.34845274  0.82471851  0.56127178     0.12600
C2434       C  0.31028786  0.82611924  0.58830611     0.62100
F2435       F  0.34532660  0.75419422  0.65240620    -0.23100
F2436       F  0.37811626  0.77781337  0.62185564    -0.20400
F2437       F  0.34369745  0.74312778  0.60332055    -0.20100
F2438       F  0.30596943  0.83538038  0.61464723    -0.20100
F2439       F  0.28825641  0.81284158  0.57159168    -0.20500
F2440       F  0.32726757  0.84657632  0.57055749    -0.23100
C2441       C  0.21239559  0.69843987  0.57875804    -0.06000
C2442       C  0.21426453  0.69700031  0.61088183     0.00000
C2443       C  0.21071525  0.67417031  0.62432232    -0.08600
C2444       C  0.20634324  0.65432060  0.60482535    -0.06000
C2445       C  0.20590049  0.65659505  0.57275509    -0.00100
C2446       C  0.20875126  0.67897961  0.55946901    -0.08500
C2447       C  0.20799560  0.68368084  0.52528404     0.61900
H2448       H  0.21493228  0.71558679  0.56814374     0.12500
H2449       H  0.20449213  0.63718456  0.61445833     0.12600
C2450       C  0.21203398  0.67054059  0.65881218     0.62100
F2451       F  0.18813453  0.68706212  0.51933440    -0.23100
F2452       F  0.20535237  0.66423728  0.50754156    -0.20400
F2453       F  0.22978675  0.70552694  0.51663694    -0.20100
F2454       F  0.19674377  0.67676617  0.67386423    -0.20100
F2455       F  0.23648213  0.68553864  0.66907020    -0.20500
F2456       F  0.20416109  0.64576140  0.66659747    -0.23100
C2457       C  0.26870706  0.82053473  0.77916202    -0.06000
C2458       C  0.27912243  0.81173933  0.75803647     0.00000
C2459       C  0.30555025  0.82356275  0.75653469    -0.08600
C2460       C  0.32048255  0.84517226  0.77437710    -0.06000
C2461       C  0.30994347  0.85547656  0.79304599    -0.00100
C2462       C  0.28348475  0.84251558  0.79620796    -0.08500
C2463       C  0.27052327  0.85249527  0.81558578     0.61900
H2464       H  0.24847980  0.81080124  0.78070927     0.12500
H2465       H  0.34071180  0.85499278  0.77276002     0.12600
C2466       C  0.31805674  0.81437860  0.73524324     0.62100
F2467       F  0.27794923  0.87686348  0.80632553    -0.23100
F2468       F  0.27651841  0.85221843  0.84628874    -0.20400
F2469       F  0.24466448  0.83801141  0.81276935    -0.20100
F2470       F  0.34394834  0.82905153  0.73708584    -0.20100
F2471       F  0.31111270  0.81526383  0.70509122    -0.20500
F2472       F  0.31097080  0.78986485  0.74321333    -0.23100
C2473       C  0.13490856  0.67200131  0.74745561    -0.06000
C2474       C  0.13570874  0.67280134  0.77986625     0.00000
C2475       C  0.15928581  0.68931730  0.79436369    -0.08600
C2476       C  0.18009296  0.70589370  0.77577996    -0.06000
C2477       C  0.17830180  0.70632132  0.74356903    -0.00100
C2478       C  0.15551755  0.68847733  0.72910401    -0.08500
C2479       C  0.15121946  0.68628588  0.69450121     0.61900
H2480       H  0.11746267  0.65908959  0.73581497     0.12500
H2481       H  0.19769368  0.71969298  0.78638607     0.12600
C2482       C  0.16276588  0.69012258  0.82907800     0.62100
F2483       F  0.13178086  0.69000362  0.68706266    -0.23100
F2484       F  0.14445168  0.66223270  0.68574546    -0.20400
F2485       F  0.17195525  0.70337185  0.67767110    -0.20100
F2486       F  0.15380065  0.66599599  0.84069323    -0.20100
F2487       F  0.15014260  0.70036961  0.84231492    -0.20500
F2488       F  0.18777358  0.70476136  0.83751659    -0.23100
C2489       C  0.25446112  0.86637608  0.67321566    -0.06000
C2490       C  0.24895314  0.85256187  0.64604784     0.00000
C2491       C  0.24804240  0.86424489  0.61794752    -0.08600
C2492       C  0.24613425  0.88604780  0.61932140    -0.06000
C2493       C  0.24775223  0.89752725  0.64757037    -0.00100
C2494       C  0.25531823  0.88933719  0.67407590    -0.08500
C2495       C  0.26301791  0.90369437  0.70404660     0.61900
H2496       H  0.25723007  0.85861438  0.69444023     0.12500
H2497       H  0.24232815  0.89352592  0.59862070     0.12600
C2498       C  0.25000473  0.85454424  0.58702699     0.62100
F2499       F  0.27994683  0.89963294  0.72013668    -0.23100
F2500       F  0.24215472  0.89558212  0.72217597    -0.20400
F2501       F  0.27456953  0.92939387  0.69847615    -0.20100
F2502       F  0.22980066  0.83064150  0.58186891    -0.20100
F2503       F  0.27174918  0.85383495  0.58647994    -0.20500
F2504       F  0.25100234  0.87009004  0.56308794    -0.23100
C2505       C  0.13257267  0.74105186  0.65289924    -0.06000
C2506       C  0.15218627  0.75711708  0.63300545     0.00000
C2507       C  0.14795181  0.77129900  0.61026126    -0.08600
C2508       C  0.12496918  0.77044843  0.61018538    -0.06000
C2509       C  0.10708702  0.75708919  0.63301430    -0.00100
C2510       C  0.11007796  0.74080676  0.65341804    -0.08500
C2511       C  0.09110895  0.72460847  0.67789806     0.61900
H2512       H  0.13575132  0.73023934  0.67032428     0.12500
H2513       H  0.12219895  0.78283176  0.59489519     0.12600
C2514       C  0.16873797  0.79016689  0.58948244     0.62100
F2515       F  0.08689968  0.70042062  0.67736477    -0.23100
F2516       F  0.06826332  0.72280847  0.67358350    -0.20400
F2517       F  0.10057006  0.73475422  0.70648591    -0.20100
F2518       F  0.17785297  0.77819610  0.57233481    -0.20100
F2519       F  0.18762397  0.80838980  0.60757938    -0.20500
F2520       F  0.16071719  0.80206545  0.56920188    -0.23100
Fe2521     Fe  0.71510663  0.28260929  0.19506910     1.65800
Fe2522     Fe  0.74855083  0.25355704  0.18824581     1.73200
Fe2523     Fe  0.73257520  0.27570892  0.12379998     1.54400
O2524       O  0.69561532  0.26732672  0.12071123    -0.81900
O2525       O  0.78103980  0.27416446  0.16291803    -0.80200
O2526       O  0.68341070  0.26743206  0.16838987    -0.84400
O2527       O  0.73059075  0.31664797  0.17200851    -0.79200
O2528       O  0.72023744  0.23781588  0.11592158    -0.81000
O2529       O  0.76596523  0.28029648  0.22273255    -0.83700
C2530       C  0.74227819  0.32693075  0.14725509     0.97000
C2531       C  0.67918402  0.26463841  0.13977603     1.04500
O2532       O  0.73206584  0.27054129  0.16894728    -1.12700
O2533       O  0.71765507  0.22981077  0.21551250    -0.75200
O2534       O  0.69730115  0.25009189  0.22141168    -0.78600
O2535       O  0.74577939  0.31450151  0.12704810    -0.79300
C2536       C  0.69968545  0.23126793  0.22625222     0.95900
O2537       O  0.74471095  0.29981191  0.22483189    -0.77300
O2538       O  0.73425331  0.22540639  0.15571637    -0.82500
C2539       C  0.78554624  0.28348192  0.13583461     0.98500
C2540       C  0.72407944  0.22154745  0.12929092     1.04500
O2541       O  0.76921152  0.28474591  0.11954009    -0.78100
C2542       C  0.76279195  0.29735195  0.23329212     1.02800
Fe2543     Fe  0.71241437  0.43115902  0.19424926     1.65800
Fe2544     Fe  0.74714563  0.99437921  0.19048538     1.73200
Fe2545     Fe  0.73357342  0.46023376  0.12412862     1.54400
O2546       O  0.74401023  0.43304960  0.12769648    -0.81900
O2547       O  0.73160812  0.00814174  0.15959849    -0.80200
O2548       O  0.72904586  0.41435842  0.17312215    -0.84400
O2549       O  0.68273518  0.41544183  0.16428967    -0.79200
O2550       O  0.77092196  0.48702287  0.12343003    -0.81000
O2551       O  0.71726633  0.98554695  0.21942540    -0.83700
C2552       C  0.67937472  0.41706163  0.13576498     0.97000
C2553       C  0.74088348  0.41694742  0.14858122     1.04500
O2554       O  0.73119020  0.46228914  0.16936808    -1.12700
O2555       O  0.76518033  0.98451222  0.22343971    -0.75200
O2556       O  0.73995728  0.44267603  0.22730073    -0.78600
O2557       O  0.69641962  0.43272793  0.11793841    -0.79300
C2558       C  0.75891612  0.46341823  0.23533492     0.95900
O2559       O  0.69351325  0.44414741  0.21843968    -0.77300
O2560       O  0.77901652  0.00791925  0.16385530    -0.82500
C2561       C  0.72269596  0.00325220  0.13249680     0.98500
C2562       C  0.78397416  0.00226838  0.13816100     1.04500
O2563       O  0.72379834  0.48743344  0.11566077    -0.78100
C2564       C  0.69723931  0.46558429  0.22521659     1.02800
Fe2565     Fe  0.57809268  0.29210707  0.18771218     1.65800
Fe2566     Fe  0.01092353  0.25457736  0.18827730     1.73200
Fe2567     Fe  0.54769655  0.27403770  0.11821182     1.54400
O2568       O  0.57505718  0.31182811  0.11413196    -0.81900
O2569       O  0.99784504  0.22204452  0.16269810    -0.80200
O2570       O  0.59164101  0.32399027  0.16095291    -0.84400
O2571       O  0.59537424  0.27831604  0.16163124    -0.79200
O2572       O  0.52082088  0.28375179  0.11399883    -0.81000
O2573       O  0.52695532  0.23906727  0.21743012    -0.83700
C2574       C  0.59170531  0.26745776  0.13603289     0.97000
C2575       C  0.58989195  0.32852696  0.13281873     1.04500
O2576       O  0.54669949  0.27387610  0.16385420    -1.12700
O2577       O  0.52320710  0.28514365  0.21475458    -0.75200
O2578       O  0.56481685  0.30804978  0.21715573    -0.78600
O2579       O  0.57435624  0.26387811  0.11741527    -0.79300
C2580       C  0.54347372  0.30361827  0.22509679     0.95900
O2581       O  0.56844778  0.26235566  0.21708137    -0.77300
O2582       O  0.99461717  0.26769703  0.15787066    -0.82500
C2583       C  0.00170518  0.21801193  0.13531929     0.98500
C2584       C  0.99901406  0.27770619  0.13130249     1.04500
O2585       O  0.52074947  0.23644337  0.11492296    -0.78100
C2586       C  0.54826715  0.24347211  0.22655650     1.02800
Fe2587     Fe  0.73798729  0.11853079  0.02212783     1.65800
Fe2588     Fe  0.67457246  0.08740639  0.01664087     1.73200
Fe2589     Fe  0.71270539  0.10625452  0.45080138     1.54400
O2590       O  0.73529207  0.14544808  0.44947563    -0.81900
O2591       O  0.66223295  0.05897634  0.48579810    -0.80200
O2592       O  0.75611333  0.14888451  0.99257731    -0.84400
O2593       O  0.75143499  0.09898174  0.00071410    -0.79200
O2594       O  0.68190705  0.10971003  0.44269389    -0.81000
O2595       O  0.68282829  0.06608930  0.04678463    -0.83700
C2596       C  0.75695638  0.09988528  0.47232215     0.97000
C2597       C  0.75265786  0.16012855  0.46782922     1.04500
O2598       O  0.70745043  0.10325822  0.99690484    -1.12700
O2599       O  0.68611799  0.11689300  0.04833851    -0.75200
O2600       O  0.72789904  0.13975828  0.04659324    -0.78600
O2601       O  0.74386642  0.10218303  0.45132794    -0.79300
C2602       C  0.70718558  0.13627733  0.05568030     0.95900
O2603       O  0.72385631  0.09021758  0.05469065    -0.77300
O2604       O  0.66376679  0.10715489  0.48736104    -0.82500
C2605       C  0.66906154  0.05253106  0.46196350     0.98500
C2606       C  0.66554169  0.11069318  0.45845946     1.04500
O2607       O  0.68968460  0.06734038  0.44848635    -0.78100
C2608       C  0.70294708  0.07030322  0.05990170     1.02800
Fe2609     Fe  0.88117967  0.11745263  0.02846175     1.65800
Fe2610     Fe  0.91379784  0.08777543  0.02186668     1.73200
Fe2611     Fe  0.89764153  0.10884349  0.45575323     1.54400
O2612       O  0.86084435  0.10114398  0.45580076    -0.81900
O2613       O  0.94843401  0.11201503  0.49455859    -0.80200
O2614       O  0.84798013  0.09875667  0.00436406    -0.84400
O2615       O  0.89385445  0.14946487  0.00162655    -0.79200
O2616       O  0.88326867  0.07096533  0.45151533    -0.81000
O2617       O  0.93149566  0.11529591  0.05547119    -0.83700
C2618       C  0.90616083  0.15966991  0.47299640     0.97000
C2619       C  0.84465857  0.09623313  0.47646986     1.04500
O2620       O  0.89708988  0.10422004  0.00251041    -1.12700
O2621       O  0.88409117  0.06516503  0.05054679    -0.75200
O2622       O  0.86639450  0.08758698  0.05915103    -0.78600
O2623       O  0.91157647  0.14718530  0.45542574    -0.79300
C2624       C  0.86829529  0.06848769  0.06414428     0.95900
O2625       O  0.91250511  0.13732536  0.05537648    -0.77300
O2626       O  0.90228699  0.06150290  0.48805514    -0.82500
C2627       C  0.95155282  0.11774735  0.46615317     0.98500
C2628       C  0.88877678  0.05583168  0.46378342     1.04500
O2629       O  0.93403555  0.11643320  0.44926311    -0.78100
C2630       C  0.92941694  0.13338225  0.06497283     1.02800
Fe2631     Fe  0.87763112  0.25975688  0.02734714     1.65800
Fe2632     Fe  0.91319141  0.32377595  0.02122202     1.73200
Fe2633     Fe  0.89367620  0.29049926  0.45651657     1.54400
O2634       O  0.90056159  0.26126594  0.45455903    -0.81900
O2635       O  0.89865694  0.34114410  0.49559410    -0.80200
O2636       O  0.89073557  0.24218769  0.00132650    -0.84400
O2637       O  0.84481179  0.24470946  0.00266700    -0.79200
O2638       O  0.93141656  0.31478139  0.45222413    -0.81000
O2639       O  0.88554748  0.31546275  0.05344342    -0.83700
C2640       C  0.84012149  0.24983455  0.47430964     0.97000
C2641       C  0.90031779  0.24574242  0.47417403     1.04500
O2642       O  0.89386735  0.29046680  0.00145041    -1.12700
O2643       O  0.93200437  0.31295781  0.05075730    -0.75200
O2644       O  0.90865246  0.27115459  0.05484771    -0.78600
O2645       O  0.85537265  0.26588685  0.45510201    -0.79300
C2646       C  0.92822649  0.29207439  0.06107520     0.95900
O2647       O  0.86266798  0.27356410  0.05707154    -0.77300
O2648       O  0.94508431  0.33873491  0.49368489    -0.82500
C2649       C  0.88979534  0.33754793  0.46851453     0.98500
C2650       C  0.94889082  0.33237624  0.46758585     1.04500
O2651       O  0.88707907  0.31964411  0.45202946    -0.78100
C2652       C  0.86754079  0.29519215  0.06490232     1.02800
Fe2653     Fe  0.90350398  0.45487969  0.36161621     1.65800
Fe2654     Fe  0.83952861  0.42119175  0.35824541     1.73200
Fe2655     Fe  0.87410120  0.43883306  0.29151020     1.54400
O2656       O  0.90044205  0.47736323  0.28934852    -0.81900
O2657       O  0.82474706  0.38978164  0.33081197    -0.80200
O2658       O  0.91749923  0.48746127  0.33626628    -0.84400
O2659       O  0.92085909  0.44136071  0.33548238    -0.79200
O2660       O  0.84689940  0.44792882  0.28645017    -0.81000
O2661       O  0.85031102  0.40252388  0.38923770    -0.83700
C2662       C  0.91780686  0.43125031  0.30954830     0.97000
C2663       C  0.91458351  0.49347632  0.30918737     1.04500
O2664       O  0.87229289  0.43820158  0.33708552    -1.12700
O2665       O  0.84965199  0.45057170  0.38829568    -0.75200
O2666       O  0.89112851  0.47074416  0.39194971    -0.78600
O2667       O  0.90133541  0.42909835  0.29031963    -0.79300
C2668       C  0.87032691  0.46774481  0.39948911     0.95900
O2669       O  0.89208942  0.42400059  0.38947473    -0.77300
O2670       O  0.82482343  0.43751158  0.32949144    -0.82500
C2671       C  0.82918149  0.38476910  0.30440889     0.98500
C2672       C  0.82940520  0.44660231  0.30225340     1.04500
O2673       O  0.84744148  0.40086359  0.28807990    -0.78100
C2674       C  0.87116029  0.40550770  0.39812358     1.02800
Fe2675     Fe  0.54377470  0.44754040  0.35728607     1.65800
Fe2676     Fe  0.57887462  0.42154108  0.35106120     1.73200
Fe2677     Fe  0.55748157  0.43728415  0.28675662     1.54400
O2678       O  0.52024421  0.42912968  0.28812653    -0.81900
O2679       O  0.61005068  0.44426944  0.32469036    -0.80200
O2680       O  0.50971960  0.42341123  0.33747590    -0.84400
O2681       O  0.54948261  0.47552195  0.32692314    -0.79200
O2682       O  0.54416876  0.39936736  0.28301665    -0.81000
O2683       O  0.59475727  0.44968941  0.38480868    -0.83700
C2684       C  0.56149360  0.48567242  0.30243229     0.97000
C2685       C  0.50400007  0.42291452  0.30921648     1.04500
O2686       O  0.56013495  0.43535196  0.33158390    -1.12700
O2687       O  0.54915252  0.39695719  0.37920106    -0.75200
O2688       O  0.53499702  0.42152867  0.39242896    -0.78600
O2689       O  0.57084123  0.47572209  0.28657201    -0.79300
C2690       C  0.53556949  0.40155999  0.39587254     0.95900
O2691       O  0.57704982  0.47251788  0.37738578    -0.77300
O2692       O  0.56567183  0.39250212  0.31915309    -0.82500
C2693       C  0.61227932  0.44866398  0.29597024     0.98500
C2694       C  0.55157588  0.38562527  0.29525283     1.04500
O2695       O  0.59393735  0.44554001  0.27926641    -0.78100
C2696       C  0.59367464  0.46933748  0.38969404     1.02800
Fe2697     Fe  0.53855857  0.09087553  0.35648187     1.65800
Fe2698     Fe  0.57904303  0.15418902  0.35097180     1.73200
Fe2699     Fe  0.55579666  0.11860211  0.28568430     1.54400
O2700       O  0.56276949  0.08946442  0.28497894    -0.81900
O2701       O  0.56662993  0.17215105  0.32179569    -0.80200
O2702       O  0.54452638  0.06876459  0.32824200    -0.84400
O2703       O  0.50616826  0.08195034  0.33403797    -0.79200
O2704       O  0.59376611  0.14358257  0.27972891    -0.81000
O2705       O  0.55101793  0.14865691  0.38111847    -0.83700
C2706       C  0.50054181  0.08190853  0.30588297     0.97000
C2707       C  0.55464693  0.07039859  0.30271059     1.04500
O2708       O  0.55795713  0.12135624  0.33095326    -1.12700
O2709       O  0.59424645  0.13940480  0.38168528    -0.75200
O2710       O  0.56957645  0.09751357  0.38064190    -0.78600
O2711       O  0.51707024  0.09333396  0.28525623    -0.79300
C2712       C  0.58953253  0.11730859  0.38875649     0.95900
O2713       O  0.52872675  0.10730260  0.38907393    -0.77300
O2714       O  0.60953392  0.16490422  0.32280326    -0.82500
C2715       C  0.55526358  0.16723053  0.29599397     0.98500
C2716       C  0.61215855  0.16027787  0.29530819     1.04500
O2717       O  0.54903441  0.14746458  0.28108539    -0.78100
C2718       C  0.53332984  0.12923089  0.39427070     1.02800
C2719       C  0.53813243  0.00374004  0.30174585    -0.06000
C2720       C  0.56183389  0.00666203  0.30024531     0.00000
C2721       C  0.58300521  0.03052664  0.29293747    -0.08600
C2722       C  0.57975828  0.05138809  0.29002241    -0.06000
C2723       C  0.55607662  0.04844324  0.29419463    -0.00100
C2724       C  0.53470571  0.02396765  0.29801754    -0.08500
C2725       C  0.50803943  0.01823029  0.30077649     0.61900
H2726       H  0.52126314  0.48704506  0.29620077     0.12500
H2727       H  0.59587633  0.07026679  0.28707613     0.12600
C2728       C  0.60879706  0.03406504  0.29039910     0.62100
F2729       F  0.49216085  0.99781469  0.28264919    -0.23100
F2730       F  0.50565327  0.03816307  0.29126457    -0.20400
F2731       F  0.50047897  0.01229211  0.33106459    -0.20100
F2732       F  0.60888910  0.01976153  0.26650126    -0.20100
F2733       F  0.61493421  0.02643833  0.31754172    -0.20500
F2734       F  0.62704299  0.05903088  0.28466694    -0.23100
C2735       C  0.94499447  0.02798987  0.27352710    -0.06000
C2736       C  0.93090908  0.02019420  0.30061409     0.00000
C2737       C  0.93473136  0.03857892  0.32232812    -0.08600
C2738       C  0.95697341  0.06210403  0.32084059    -0.06000
C2739       C  0.97420578  0.06801696  0.29706854    -0.00100
C2740       C  0.96578704  0.05269819  0.27049936    -0.08500
C2741       C  0.47875035  0.05979817  0.24068439     0.61900
H2742       H  0.94058239  0.01455017  0.25538064     0.12500
H2743       H  0.96195463  0.07489993  0.33991030     0.12600
C2744       C  0.91676428  0.03355604  0.34832105     0.62100
F2745       F  0.46398881  0.04484412  0.21668285    -0.23100
F2746       F  0.50063477  0.05940424  0.24139699    -0.20400
F2747       F  0.48435721  0.08417169  0.23470010    -0.20100
F2748       F  0.92684974  0.03122450  0.37584015    -0.20100
F2749       F  0.89363591  0.01192785  0.34360597    -0.20500
F2750       F  0.91295102  0.05353711  0.35029740    -0.23100
C2751       C  0.95022878  0.43067657  0.27761135    -0.06000
C2752       C  0.93402828  0.42111010  0.30287103     0.00000
C2753       C  0.93684828  0.40551708  0.32471151    -0.08600
C2754       C  0.95856537  0.40429227  0.32407899    -0.06000
C2755       C  0.97707076  0.41716287  0.30156979    -0.00100
C2756       C  0.97146380  0.42820763  0.27597229    -0.08500
C2757       C  0.48761587  0.43725446  0.24776304     0.61900
H2758       H  0.94715353  0.44159329  0.26028843     0.12500
H2759       H  0.96162604  0.39411507  0.34249933     0.12600
C2760       C  0.91794351  0.39047538  0.34975164     0.62100
F2761       F  0.97655066  0.44424315  0.22412414    -0.23100
F2762       F  0.49035003  0.41822577  0.23624971    -0.20400
F2763       F  0.51096454  0.45800861  0.25390031    -0.20100
F2764       F  0.89592336  0.39041406  0.34609592    -0.20100
F2765       F  0.92832347  0.40035741  0.37816435    -0.20500
F2766       F  0.91187922  0.36563983  0.34906757    -0.23100
C2767       C  0.86272336  0.34506563  0.43352667    -0.06000
C2768       C  0.88269984  0.35506002  0.45481856     0.00000
C2769       C  0.89678791  0.38150227  0.45977101    -0.08600
C2770       C  0.89087331  0.39692886  0.44213386    -0.06000
C2771       C  0.87198627  0.38707715  0.41946420    -0.00100
C2772       C  0.85720943  0.36061557  0.41539284    -0.08500
C2773       C  0.83676723  0.34879716  0.39093300     0.61900
H2774       H  0.85200502  0.32484646  0.43034436     0.12500
H2775       H  0.90171691  0.41718069  0.44505526     0.12600
C2776       C  0.91880411  0.39379446  0.48219918     0.62100
F2777       F  0.82558329  0.32280948  0.39029307    -0.23100
F2778       F  0.84681480  0.35829199  0.36222031    -0.20400
F2779       F  0.81827645  0.35402099  0.39677789    -0.20100
F2780       F  0.93612535  0.38715330  0.47524392    -0.20100
F2781       F  0.90845832  0.38247864  0.01223320    -0.20500
F2782       F  0.93103844  0.41989001  0.48102402    -0.23100
C2783       C  0.50409948  0.35730993  0.41033170    -0.06000
C2784       C  0.51836401  0.38268000  0.41891550     0.00000
C2785       C  0.51307252  0.38992562  0.44715044    -0.08600
C2786       C  0.99143917  0.37104424  0.46474417    -0.06000
C2787       C  0.97432245  0.34689767  0.45342808    -0.00100
C2788       C  0.98144237  0.33821122  0.42758335    -0.08500
C2789       C  0.96643013  0.31110226  0.41657704     0.61900
H2790       H  0.50875007  0.35181880  0.38915342     0.12500
H2791       H  0.98716435  0.37736079  0.48552598     0.12600
C2792       C  0.52917720  0.41631991  0.45973988     0.62100
F2793       F  0.98020822  0.30589874  0.39672676    -0.23100
F2794       F  0.94511995  0.30685863  0.40100383    -0.20400
F2795       F  0.95982430  0.29455803  0.44138652    -0.20100
F2796       F  0.52124284  0.43165489  0.44721300    -0.20100
F2797       F  0.55417339  0.42620897  0.45286575    -0.20500
F2798       F  0.52727017  0.41613691  0.49144097    -0.23100
C2799       C  0.98314623  0.14057568  0.42482781    -0.06000
C2800       C  0.97609420  0.12521666  0.45153635     0.00000
C2801       C  0.99118562  0.11528715  0.46145172    -0.08600
C2802       C  0.51037896  0.11706446  0.44320509    -0.06000
C2803       C  0.51621434  0.13113975  0.41570485    -0.00100
C2804       C  0.00349815  0.14490946  0.40648941    -0.08500
C2805       C  0.00938558  0.16056572  0.37708210     0.61900
H2806       H  0.97193812  0.14849093  0.41775471     0.12500
H2807       H  0.52135521  0.10867675  0.44933951     0.12600
C2808       C  0.98560651  0.09917996  0.49051808     0.62100
F2809       F  0.99319345  0.16926159  0.37227889    -0.23100
F2810       F  0.50427308  0.14027011  0.35240409    -0.20400
F2811       F  0.53016171  0.17723916  0.37582856    -0.20100
F2812       F  0.96161463  0.07819566  0.48896083    -0.20100
F2813       F  0.98404211  0.10833162  0.01751590    -0.20500
F2814       F  0.49904638  0.08496642  0.49204679    -0.23100
C2815       C  0.88744350  0.01502351  0.46207203    -0.06000
C2816       C  0.88012932  0.03110349  0.44856821     0.00000
C2817       C  0.86627357  0.02369205  0.42020944    -0.08600
C2818       C  0.85975415  0.49992794  0.40949104    -0.06000
C2819       C  0.87077403  0.48652330  0.42022147    -0.00100
C2820       C  0.88427604  0.49333564  0.44834179    -0.08500
C2821       C  0.89368784  0.47731530  0.46302233     0.61900
H2822       H  0.89729777  0.02003048  0.48393766     0.12500
H2823       H  0.84915533  0.49402932  0.38815377     0.12600
C2824       C  0.85600172  0.03858753  0.40430657     0.62100
F2825       F  0.90279435  0.48508614  0.49253341    -0.23100
F2826       F  0.91281708  0.47884115  0.44580181    -0.20400
F2827       F  0.87421346  0.45241396  0.46482502    -0.20100
F2828       F  0.87555395  0.06187099  0.39452704    -0.20100
F2829       F  0.84084131  0.04167688  0.42429455    -0.20500
F2830       F  0.84160377  0.02640370  0.37864693    -0.23100
C2831       C  0.89817711  0.18854649  0.44236766    -0.06000
C2832       C  0.91300932  0.18552961  0.46459650     0.00000
C2833       C  0.92842799  0.20558629  0.48449100    -0.08600
C2834       C  0.92522217  0.22626997  0.48526439    -0.06000
C2835       C  0.90813015  0.22799416  0.46557715    -0.00100
C2836       C  0.89569898  0.20986953  0.44227082    -0.08500
C2837       C  0.87854874  0.21213884  0.41905140     0.61900
H2838       H  0.88669628  0.17302330  0.42710466     0.12500
H2839       H  0.93522959  0.24060597  0.50251208     0.12600
C2840       C  0.94705971  0.20492175  0.50671100     0.62100
F2841       F  0.86803405  0.19230626  0.39866899    -0.23100
F2842       F  0.89215356  0.23431884  0.40221729    -0.20400
F2843       F  0.85663624  0.20789755  0.93633244    -0.20100
F2844       F  0.95184760  0.18617388  0.49976940    -0.20100
F2845       F  0.93787228  0.20094507  0.53630865    -0.20500
F2846       F  0.96957677  0.22776844  0.50537263    -0.23100
C2847       C  0.63253470  0.09508674  0.41912574    -0.06000
C2848       C  0.64616250  0.11316296  0.44158434     0.00000
C2849       C  0.64063851  0.13211373  0.44716115    -0.08600
C2850       C  0.62183041  0.13259569  0.42960371    -0.06000
C2851       C  0.60817676  0.11454776  0.40708814    -0.00100
C2852       C  0.61338943  0.09515575  0.40185029    -0.08500
C2853       C  0.59944893  0.07486067  0.37784473     0.61900
H2854       H  0.63684635  0.08053578  0.41557502     0.12500
H2855       H  0.61761815  0.14718419  0.43332266     0.12600
C2856       C  0.65528374  0.15239845  0.47040522     0.62100
F2857       F  0.60963492  0.05986152  0.37458970    -0.23100
F2858       F  0.60060577  0.08599574  0.34956148    -0.20400
F2859       F  0.57470123  0.05922162  0.38638322    -0.20100
F2860       F  0.68020766  0.16562015  0.46199153    -0.20100
F2861       F  0.65249238  0.14145657  0.49922524    -0.20500
F2862       F  0.64725527  0.16935287  0.47193263    -0.23100
C2863       C  0.62526189  0.01880869  0.45263857    -0.06000
C2864       C  0.65074887  0.02757268  0.44822481     0.00000
C2865       C  0.65727532  0.01330315  0.42960770    -0.08600
C2866       C  0.63708734  0.49413058  0.41110342    -0.06000
C2867       C  0.61256805  0.48965672  0.40995441    -0.00100
C2868       C  0.60608784  0.99765569  0.43748194    -0.08500
C2869       C  0.58112895  0.50236140  0.42717268     0.61900
H2870       H  0.62029054  0.02969149  0.46675914     0.12500
H2871       H  0.64115154  0.48208920  0.39792302     0.12600
C2872       C  0.68433994  0.02086138  0.42488160     0.62100
F2873       F  0.57691077  0.00164434  0.46872513    -0.23100
F2874       F  0.56292766  0.47741450  0.43270059    -0.20400
F2875       F  0.57074531  0.99844011  0.41778678    -0.20100
F2876       F  0.69659356  0.02544453  0.45295441    -0.20100
F2877       F  0.69634220  0.04233643  0.40651485    -0.20500
F2878       F  0.68339996  0.49947449  0.41299973    -0.23100
C2879       C  0.77337086  0.20295343  0.48736735    -0.06000
C2880       C  0.76838373  0.18754350  0.46181231     0.00000
C2881       C  0.78326320  0.19798722  0.43520128    -0.08600
C2882       C  0.80642362  0.22095582  0.43818067    -0.06000
C2883       C  0.81334987  0.23391657  0.46620704    -0.00100
C2884       C  0.79511446  0.22672627  0.48924518    -0.08500
C2885       C  0.79901088  0.24261012  0.51724201     0.61900
H2886       H  0.76119138  0.19544361  0.50728800     0.12500
H2887       H  0.81997925  0.22762592  0.41973055     0.12600
C2888       C  0.77491847  0.18491468  0.40448967     0.62100
F2889       F  0.77771367  0.24353530  0.52217620    -0.23100
F2890       F  0.81877920  0.26721313  0.51347729    -0.20400
F2891       F  0.80575337  0.22863039  0.04488826    -0.20100
F2892       F  0.75177305  0.18142147  0.39672891    -0.20100
F2893       F  0.77289721  0.16172776  0.40596572    -0.20500
F2894       F  0.79158148  0.19911970  0.38134754    -0.23100
C2895       C  0.77623270  0.07444561  0.48274009    -0.06000
C2896       C  0.77588695  0.09331739  0.46476624     0.00000
C2897       C  0.79612825  0.10843874  0.44470562    -0.08600
C2898       C  0.81742771  0.10628272  0.44624518    -0.06000
C2899       C  0.81911502  0.08993163  0.46749927    -0.00100
C2900       C  0.79748833  0.07218719  0.48413596    -0.08500
C2901       C  0.79661511  0.05071640  0.50267215     0.61900
H2902       H  0.76022667  0.06244229  0.49715938     0.12500
H2903       H  0.83257389  0.11995619  0.93375458     0.12600
C2904       C  0.79425501  0.12838515  0.92578514     0.62100
F2905       F  0.77270268  0.03380473  0.51332315    -0.23100
F2906       F  0.81246026  0.05975641  0.52788338    -0.20400
F2907       F  0.80371326  0.03769733  0.48413844    -0.20100
F2908       F  0.79219130  0.14468353  0.94497588    -0.20100
F2909       F  0.77603404  0.11763749  0.40439858    -0.20500
F2910       F  0.81604124  0.14228924  0.90899352    -0.23100
C2911       C  0.93892782  0.27567894  0.10687080    -0.06000
C2912       C  0.94735164  0.29168372  0.08100185     0.00000
C2913       C  0.97309318  0.30483226  0.07330804    -0.08600
C2914       C  0.98943484  0.30074549  0.09158511    -0.06000
C2915       C  0.98090046  0.28366972  0.11671072    -0.00100
C2916       C  0.95510896  0.27128241  0.12503590    -0.08500
C2917       C  0.94407757  0.25280255  0.15206357     0.61900
H2918       H  0.91915773  0.26607312  0.11226153     0.12500
H2919       H  0.00910151  0.31044436  0.08570612     0.12600
C2920       C  0.98312132  0.32197915  0.04501148     0.62100
F2921       F  0.91850268  0.24260418  0.15474511    -0.23100
F2922       F  0.95516587  0.26509331  0.17920538    -0.20400
F2923       F  0.94789381  0.23297634  0.14826824    -0.20100
F2924       F  0.98056580  0.34261982  0.04843341    -0.20100
F2925       F  0.97003319  0.30881588  0.01911843    -0.20500
F2926       F  0.00826312  0.33092555  0.04029816    -0.23100
C2927       C  0.95945566  0.17977822  0.13034346    -0.06000
C2928       C  0.98471336  0.19289967  0.12141881     0.00000
C2929       C  0.99209958  0.18329413  0.09698102    -0.08600
C2930       C  0.97346906  0.16269262  0.08021871    -0.06000
C2931       C  0.94801507  0.15144684  0.08717388    -0.00100
C2932       C  0.94090430  0.15912672  0.11363710    -0.08500
C2933       C  0.91384690  0.14580517  0.12413494     0.61900
H2934       H  0.95396185  0.18685297  0.14931475     0.12500
H2935       H  0.97858955  0.15620745  0.06028167     0.12600
C2936       C  0.52185700  0.19533748  0.08524268     0.62100
F2937       F  0.91199416  0.15245212  0.15373953    -0.23100
F2938       F  0.90355171  0.11996500  0.12397034    -0.20400
F2939       F  0.90011414  0.15210816  0.10476494    -0.20100
F2940       F  0.53671141  0.20035040  0.11120283    -0.20100
F2941       F  0.52997815  0.21737987  0.06844200    -0.20500
F2942       F  0.52489354  0.17895004  0.06730910    -0.23100
C2943       C  0.52733086  0.33125198  0.23812589    -0.06000
C2944       C  0.54237097  0.32141099  0.24634068     0.00000
C2945       C  0.55660825  0.32941047  0.27389520    -0.08600
C2946       C  0.55814636  0.34962290  0.28989639    -0.06000
C2947       C  0.54511768  0.36145858  0.28003959    -0.00100
C2948       C  0.52787348  0.35074120  0.25489920    -0.08500
C2949       C  0.50987883  0.35930985  0.24551096     0.61900
H2950       H  0.51576255  0.32416021  0.21762493     0.12500
H2951       H  0.57038122  0.35680903  0.30980825     0.12600
C2952       C  0.56951541  0.31617556  0.28690645     0.62100
F2953       F  0.49162997  0.34269238  0.22525540    -0.23100
F2954       F  0.52275748  0.38272222  0.23111015    -0.20400
F2955       F  0.49775865  0.36047461  0.27119479    -0.20100
F2956       F  0.58990466  0.32176243  0.26906405    -0.20100
F2957       F  0.55275246  0.29036407  0.28740291    -0.20500
F2958       F  0.57794892  0.32349296  0.31673103    -0.23100
C2959       C  0.52920056  0.19993834  0.24708140    -0.06000
C2960       C  0.54952381  0.22502982  0.24771527     0.00000
C2961       C  0.57062943  0.23114153  0.26687467    -0.08600
C2962       C  0.57063253  0.21166839  0.28383646    -0.06000
C2963       C  0.55109118  0.18644988  0.28143854    -0.00100
C2964       C  0.52971975  0.18038771  0.26319665    -0.08500
C2965       C  0.00671208  0.15207282  0.25900710     0.61900
H2966       H  0.00994315  0.19387749  0.23425568     0.12500
H2967       H  0.58686274  0.21581107  0.29771021     0.12600
C2968       C  0.59349554  0.25769721  0.26925186     0.62100
F2969       F  0.98551548  0.15041030  0.24605678    -0.23100
F2970       F  0.50070745  0.14167422  0.28831904    -0.20400
F2971       F  0.01505157  0.14092213  0.23917906    -0.20100
F2972       F  0.60969904  0.25952057  0.29259426    -0.20100
F2973       F  0.60673813  0.26450672  0.24202532    -0.20500
F2974       F  0.58610393  0.27457393  0.27549442    -0.23100
C2975       C  0.69657893  0.01004094  0.09403481    -0.06000
C2976       C  0.71506398  0.02013597  0.11732946    -0.02700
C2977       C  0.72697283  0.04635130  0.12386513    -0.08600
C2978       C  0.72042298  0.06131333  0.10618710    -0.06000
C2979       C  0.70323407  0.05157090  0.08164772    -0.00100
C2980       C  0.69056141  0.02531226  0.07583599    -0.08500
C2981       C  0.67178148  0.01361291  0.04961289     0.61900
H2982       H  0.68736903  0.99006003  0.08950303     0.12500
H2983       H  0.72969050  0.08134189  0.11047411     0.12600
C2984       C  0.74535610  0.56011924  0.15208103     0.62100
F2985       F  0.66262243  0.98804729  0.04708161    -0.23100
F2986       F  0.68307506  0.02519692  0.02208078    -0.20400
F2987       F  0.65166067  0.01656472  0.05453650    -0.20100
F2988       F  0.75348380  0.58544346  0.15494230    -0.20100
F2989       F  0.76663415  0.05463169  0.14207714    -0.20500
F2990       F  0.73812709  0.05031386  0.17697823    -0.23100
C2991       C  0.84797674  0.05776964  0.11494404    -0.06000
C2992       C  0.85074685  0.04939980  0.08639837     0.00000
C2993       C  0.83479847  0.02383944  0.07850658    -0.08600
C2994       C  0.81405888  0.00857364  0.09730955    -0.06000
C2995       C  0.80943104  0.01774248  0.12429162    -0.00100
C2996       C  0.82822776  0.04194408  0.13491982    -0.08500
C2997       C  0.82793168  0.05127066  0.16684582     0.61900
H2998       H  0.86110332  0.07713858  0.12113147     0.12500
H2999       H  0.80079398  0.98944557  0.09031994     0.12600
C3000       C  0.83913337  0.01293729  0.04996494     0.62100
F3001       F  0.85025817  0.07328735  0.17364458    -0.23100
F3002       F  0.82472303  0.03326061  0.18863475    -0.20400
F3003       F  0.80774752  0.55888987  0.16520527    -0.20100
F3004       F  0.86204298  0.01462210  0.05247934    -0.20100
F3005       F  0.83903410  0.02611070  0.02401303    -0.20500
F3006       F  0.82086383  0.98777514  0.04617224    -0.23100
C3007       C  0.64181095  0.46960613  0.25228618    -0.06000
C3008       C  0.63675714  0.45674133  0.28083880     0.00000
C3009       C  0.65385433  0.44971886  0.29232915    -0.08600
C3010       C  0.67416602  0.45441194  0.27384746    -0.06000
C3011       C  0.67823813  0.46592044  0.24477399    -0.00100
C3012       C  0.66224797  0.47426344  0.23395966    -0.08500
C3013       C  0.66952743  0.98934675  0.20866296     0.61900
H3014       H  0.62903481  0.47527306  0.24384450     0.12500
H3015       H  0.68680250  0.44832580  0.28153401     0.12600
C3016       C  0.65049395  0.43636513  0.32322166     0.62100
F3017       F  0.65154756  0.99543130  0.20197515    -0.23100
F3018       F  0.66966325  0.97498150  0.18484396    -0.20400
F3019       F  0.69257808  0.01154009  0.21026603    -0.20100
F3020       F  0.62752124  0.41397757  0.32400691    -0.20100
F3021       F  0.65201979  0.45183357  0.34668260    -0.20500
F3022       F  0.66880594  0.43052435  0.32871227    -0.23100
C3023       C  0.78803412  0.44335573  0.29845239    -0.06000
C3024       C  0.81280996  0.45468874  0.28769748     0.00000
C3025       C  0.82035486  0.47206417  0.26238272    -0.08600
C3026       C  0.80231940  0.47576833  0.24758126    -0.06000
C3027       C  0.77718936  0.46260631  0.25665756    -0.00100
C3028       C  0.77000530  0.44691668  0.28324974    -0.08500
C3029       C  0.74341058  0.43380719  0.29541108     0.61900
H3030       H  0.78237196  0.43045507  0.31796143     0.12500
H3031       H  0.81007930  0.99164516  0.23113542     0.12600
C3032       C  0.84701262  0.48641073  0.25016471     0.62100
F3033       F  0.74192143  0.42447163  0.32500138    -0.23100
F3034       F  0.72758201  0.41381842  0.27677054    -0.20400
F3035       F  0.73525850  0.45068084  0.29606430    -0.20100
F3036       F  0.85193936  0.47010814  0.23500494    -0.20100
F3037       F  0.86426716  0.00078676  0.28361846    -0.20500
F3038       F  0.85389007  0.01278828  0.23987861    -0.23100
C3039       C  0.63396712  0.39729514  0.13800981    -0.06000
C3040       C  0.65452065  0.39879061  0.12347720     0.00000
C3041       C  0.65091731  0.37913692  0.10399659    -0.08600
C3042       C  0.62706610  0.35700630  0.10301476    -0.06000
C3043       C  0.60761501  0.35416294  0.12161827    -0.00100
C3044       C  0.61032853  0.37521785  0.13713162    -0.08500
C3045       C  0.58940326  0.37443036  0.15514470     0.61900
H3046       H  0.63688811  0.41269727  0.15240856     0.12500
H3047       H  0.62446234  0.34063457  0.09107940     0.12600
C3048       C  0.67264051  0.38045843  0.08705089     0.62100
F3049       F  0.58763886  0.39512637  0.14702551    -0.23100
F3050       F  0.59470992  0.37533222  0.18626665    -0.20400
F3051       F  0.56639049  0.35293060  0.14936708    -0.20100
F3052       F  0.69050830  0.38237914  0.10788768    -0.20100
F3053       F  0.68337048  0.40129525  0.06754324    -0.20500
F3054       F  0.66496567  0.35923681  0.06952482    -0.23100
C3055       C  0.82148123  0.27744603  0.13000248    -0.06000
C3056       C  0.81013195  0.29122861  0.12167504     0.00000
C3057       C  0.82123040  0.31002557  0.09812270    -0.08600
C3058       C  0.84119473  0.31196527  0.08115636    -0.06000
C3059       C  0.85078015  0.29634650  0.08764549    -0.00100
C3060       C  0.84205986  0.28015673  0.11386862    -0.08500
C3061       C  0.85353251  0.26487716  0.12449364     0.61900
H3062       H  0.81342285  0.26347046  0.14839336     0.12500
H3063       H  0.84843481  0.32472757  0.06148370     0.12600
C3064       C  0.81186115  0.32763046  0.09012643     0.62100
F3065       F  0.85066118  0.26031686  0.15590868    -0.23100
F3066       F  0.87897035  0.27770773  0.11849521    -0.20400
F3067       F  0.84181361  0.24199266  0.10960450    -0.20100
F3068       F  0.80636224  0.33568762  0.11665516    -0.20100
F3069       F  0.79062944  0.31529400  0.07180974    -0.20500
F3070       F  0.82979725  0.34885732  0.07427907    -0.23100
C3071       C  0.71099715  0.19669233  0.08115602    -0.06000
C3072       C  0.71758425  0.19781330  0.11242351     0.00000
C3073       C  0.71990720  0.17756413  0.12502282    -0.08600
C3074       C  0.71431112  0.15693044  0.10607692    -0.06000
C3075       C  0.70826505  0.15641174  0.07481735    -0.00100
C3076       C  0.70755787  0.17719879  0.06195390    -0.08500
C3077       C  0.70439294  0.18075594  0.02803063     0.61900
H3078       H  0.70993121  0.21213772  0.07074271     0.12500
H3079       H  0.71593577  0.14144300  0.11512552     0.12600
C3080       C  0.72945859  0.17778141  0.15753289     0.62100
F3081       F  0.68342615  0.18259343  0.02399060    -0.23100
F3082       F  0.70198930  0.16141096  0.01033340    -0.20400
F3083       F  0.72500108  0.20301102  0.01767521    -0.20100
F3084       F  0.71435586  0.17967187  0.17874246    -0.20100
F3085       F  0.75383512  0.19788268  0.16054643    -0.20500
F3086       F  0.72958375  0.15598404  0.16456583    -0.23100
C3087       C  0.77045660  0.32490049  0.27723699    -0.06000
C3088       C  0.78060756  0.31595355  0.25596348     0.00000
C3089       C  0.80704467  0.32791974  0.25380259    -0.08600
C3090       C  0.82222455  0.34930434  0.27190576    -0.06000
C3091       C  0.81195283  0.35945235  0.29123441    -0.00100
C3092       C  0.78549599  0.34676727  0.29440897    -0.08500
C3093       C  0.77282406  0.35701853  0.31387441     0.61900
H3094       H  0.75025185  0.31530030  0.27895681     0.12500
H3095       H  0.84242801  0.35908750  0.27000413     0.12600
C3096       C  0.81931398  0.31933192  0.23127543     0.62100
F3097       F  0.78058331  0.38147381  0.30462846    -0.23100
F3098       F  0.77877053  0.35664396  0.34457428    -0.20400
F3099       F  0.74695285  0.34283082  0.31109659    -0.20100
F3100       F  0.84521868  0.33424110  0.23238250    -0.20100
F3101       F  0.81167670  0.32063734  0.20160946    -0.20500
F3102       F  0.81269639  0.29479283  0.23823424    -0.23100
C3103       C  0.63705819  0.17409559  0.24714313    -0.06000
C3104       C  0.63696864  0.17595563  0.27943521     0.00000
C3105       C  0.65976442  0.19393820  0.29442906    -0.08600
C3106       C  0.68061211  0.21082973  0.27624097    -0.06000
C3107       C  0.67967876  0.20989605  0.24406528    -0.00100
C3108       C  0.65794262  0.19077404  0.22925475    -0.08500
C3109       C  0.65662817  0.18857667  0.19446739     0.61900
H3110       H  0.62013717  0.16012762  0.23553057     0.12500
H3111       H  0.69753355  0.22571693  0.28697963     0.12600
C3112       C  0.66241732  0.19592935  0.32922165     0.62100
F3113       F  0.63371340  0.16881940  0.18441296    -0.23100
F3114       F  0.67506040  0.18447709  0.18461147    -0.20400
F3115       F  0.66032883  0.21059609  0.18102522    -0.20100
F3116       F  0.65377715  0.17230662  0.34228975    -0.20100
F3117       F  0.64898847  0.20604352  0.34043298    -0.20500
F3118       F  0.68717566  0.21135966  0.33830290    -0.23100
C3119       C  0.75736081  0.36847081  0.17042782    -0.06000
C3120       C  0.75125006  0.35441968  0.14330917     0.00000
C3121       C  0.75013119  0.36606691  0.11530589    -0.08600
C3122       C  0.74849135  0.38801417  0.11683344    -0.06000
C3123       C  0.75064273  0.39968460  0.14510047    -0.00100
C3124       C  0.75859733  0.39163968  0.17130655    -0.08500
C3125       C  0.76725434  0.40644672  0.20093504     0.61900
H3126       H  0.76038188  0.36080925  0.19157151     0.12500
H3127       H  0.74434599  0.39537733  0.09629612     0.12600
C3128       C  0.75145078  0.35608225  0.08432700     0.62100
F3129       F  0.78594395  0.40392969  0.21485941    -0.23100
F3130       F  0.74735555  0.39743147  0.22097958    -0.20400
F3131       F  0.77707692  0.43192308  0.19529239    -0.20100
F3132       F  0.73108402  0.33217635  0.07977966    -0.20100
F3133       F  0.77311367  0.35525980  0.08313454    -0.20500
F3134       F  0.75205329  0.37145491  0.06040109    -0.23100
C3135       C  0.63319431  0.24095393  0.14519803    -0.06000
C3136       C  0.65430625  0.25952033  0.12912433     0.00000
C3137       C  0.65180581  0.27644966  0.10906798    -0.08600
C3138       C  0.62896907  0.27580994  0.10839029    -0.06000
C3139       C  0.60925876  0.25955114  0.12784963    -0.00100
C3140       C  0.61061590  0.24068012  0.14499442    -0.08500
C3141       C  0.58929547  0.22058407  0.16437976     0.61900
H3142       H  0.63489767  0.22771478  0.16009922     0.12500
H3143       H  0.62742955  0.29009937  0.09551212     0.12600
C3144       C  0.67400455  0.29741809  0.09192414     0.62100
F3145       F  0.58338382  0.19702333  0.15459211    -0.23100
F3146       F  0.56781681  0.22172705  0.16233960    -0.20400
F3147       F  0.59676931  0.22318846  0.19488400    -0.20100
F3148       F  0.68463529  0.28743927  0.07383799    -0.20100
F3149       F  0.69135788  0.31375160  0.11308566    -0.20500
F3150       F  0.66726769  0.31108281  0.07281762    -0.23100
Fe3151     Fe  0.71402253  0.28172391  0.69660900     1.65800
Fe3152     Fe  0.74684990  0.25227384  0.68800061     1.73200
Fe3153     Fe  0.73129030  0.27591137  0.62452890     1.54400
O3154       O  0.69409146  0.26716919  0.62179973    -0.81900
O3155       O  0.77912726  0.27244587  0.66211025    -0.80200
O3156       O  0.68269218  0.26799399  0.66969315    -0.84400
O3157       O  0.73021468  0.31620601  0.67489153    -0.79200
O3158       O  0.71920554  0.23825649  0.61553399    -0.81000
O3159       O  0.76495929  0.27867405  0.72232295    -0.83700
C3160       C  0.74130893  0.32671379  0.64992638     0.97000
C3161       C  0.67800869  0.26488616  0.64120308     1.04500
O3162       O  0.73071590  0.26990825  0.66958791    -1.12700
O3163       O  0.71621244  0.22867703  0.71575635    -0.75200
O3164       O  0.69546847  0.24855974  0.72148848    -0.78600
O3165       O  0.74412874  0.31449261  0.62880595    -0.79300
C3166       C  0.69797486  0.22980751  0.72618364     0.95900
O3167       O  0.74331910  0.29763080  0.72692438    -0.77300
O3168       O  0.73169543  0.22445111  0.65548198    -0.82500
C3169       C  0.78414543  0.28296130  0.63565717     0.98500
C3170       C  0.72210030  0.22135356  0.62885349     1.04500
O3171       O  0.76825397  0.28549468  0.61996144    -0.78100
C3172       C  0.76166698  0.29524089  0.73408910     1.02800
Fe3173     Fe  0.71345555  0.43302340  0.70012849     1.65800
Fe3174     Fe  0.74832593  0.99494923  0.68857818     1.73200
Fe3175     Fe  0.73192424  0.45912460  0.62822261     1.54400
O3176       O  0.74093601  0.43101800  0.63246636    -0.81900
O3177       O  0.73374563  0.00940970  0.65730677    -0.80200
O3178       O  0.72983379  0.41562352  0.68002167    -0.84400
O3179       O  0.68280297  0.41547467  0.67169356    -0.79200
O3180       O  0.76946887  0.48462331  0.62481047    -0.81000
O3181       O  0.71769153  0.98601885  0.71664242    -0.83700
C3182       C  0.67807350  0.41719369  0.64366071     0.97000
C3183       C  0.73966988  0.41649713  0.65443165     1.04500
O3184       O  0.73129212  0.46309225  0.67322905    -1.12700
O3185       O  0.76555629  0.98443312  0.72198384    -0.75200
O3186       O  0.74198769  0.44650077  0.73204317    -0.78600
O3187       O  0.69421651  0.43293966  0.62502340    -0.79300
C3188       C  0.76220462  0.46713990  0.73711234     0.95900
O3189       O  0.69481158  0.44664217  0.72329566    -0.77300
O3190       O  0.78080246  0.00882489  0.66248963    -0.82500
C3191       C  0.72522903  0.00476397  0.63002920     0.98500
C3192       C  0.78590579  0.00352811  0.63658195     1.04500
O3193       O  0.72361025  0.48709953  0.61868764    -0.78100
C3194       C  0.69943687  0.46830279  0.73044060     1.02800
Fe3195     Fe  0.57600132  0.29152866  0.69108478     1.65800
Fe3196     Fe  0.01212155  0.25449122  0.68812468     1.73200
Fe3197     Fe  0.54671475  0.27484308  0.62079513     1.54400
O3198       O  0.57321619  0.31302837  0.61825606    -0.81900
O3199       O  0.99973933  0.22203747  0.66331871    -0.80200
O3200       O  0.58968502  0.32380176  0.66537955    -0.84400
O3201       O  0.59374056  0.27841255  0.66498582    -0.79200
O3202       O  0.51925368  0.28353607  0.61617412    -0.81000
O3203       O  0.52430240  0.23807694  0.71897062    -0.83700
C3204       C  0.59079781  0.26851013  0.63889302     0.97000
C3205       C  0.58778445  0.32919846  0.63766176     1.04500
O3206       O  0.54500415  0.27384313  0.66645043    -1.12700
O3207       O  0.52091963  0.28448904  0.71732473    -0.75200
O3208       O  0.56247952  0.30694557  0.72073675    -0.78600
O3209       O  0.57407079  0.26572913  0.61976993    -0.79300
C3210       C  0.54114405  0.30274044  0.72814349     0.95900
O3211       O  0.56584242  0.26114077  0.71932766    -0.77300
O3212       O  0.99532571  0.26695116  0.65751841    -0.82500
C3213       C  0.00368331  0.21744492  0.63636512     0.98500
C3214       C  0.99936016  0.27635245  0.63060442     1.04500
O3215       O  0.52058105  0.23696128  0.61669575    -0.78100
C3216       C  0.54545928  0.24216406  0.72811336     1.02800
Fe3217     Fe  0.74007091  0.12179719  0.52172560     1.65800
Fe3218     Fe  0.67666588  0.08910624  0.51568631     1.73200
Fe3219     Fe  0.71024333  0.10394633  0.95175102     1.54400
O3220       O  0.73222481  0.14309664  0.95111731    -0.81900
O3221       O  0.65958900  0.05704968  0.98638828    -0.80200
O3222       O  0.75746602  0.15252736  0.49283478    -0.84400
O3223       O  0.75519902  0.10380101  0.50031130    -0.79200
O3224       O  0.67916131  0.10685870  0.94349582    -0.81000
O3225       O  0.68548105  0.06818576  0.54551417    -0.83700
C3226       C  0.75430813  0.09703555  0.97243710     0.97000
C3227       C  0.75038459  0.15720395  0.96888641     1.04500
O3228       O  0.70972638  0.10570247  0.49604023    -1.12700
O3229       O  0.68693778  0.11803945  0.54732626    -0.75200
O3230       O  0.72860265  0.14192933  0.54609142    -0.78600
O3231       O  0.74195671  0.10076336  0.95173970    -0.79300
C3232       C  0.70754595  0.13780468  0.55467825     0.95900
O3233       O  0.72643831  0.09292211  0.55367626    -0.77300
O3234       O  0.66199506  0.10592441  0.98819020    -0.82500
C3235       C  0.66665216  0.05042024  0.96279499     0.98500
C3236       C  0.66326647  0.10870808  0.95913857     1.04500
O3237       O  0.68759472  0.06500851  0.94980426    -0.78100
C3238       C  0.70572705  0.07261039  0.55839750     1.02800
Fe3239     Fe  0.88408067  0.12006742  0.52673403     1.65800
Fe3240     Fe  0.91642022  0.09042523  0.52016226     1.73200
Fe3241     Fe  0.89607333  0.10731881  0.95717940     1.54400
O3242       O  0.85938437  0.09964310  0.95585540    -0.81900
O3243       O  0.94558384  0.10812786  0.99575651    -0.80200
O3244       O  0.85022716  0.09943332  0.50478412    -0.84400
O3245       O  0.89455237  0.15085384  0.49813880    -0.79200
O3246       O  0.88224719  0.06949220  0.95165733    -0.81000
O3247       O  0.93294732  0.11731595  0.55472812    -0.83700
C3248       C  0.90521525  0.15827003  0.97634575     0.97000
C3249       C  0.84304577  0.09558826  0.97584431     1.04500
O3250       O  0.89956762  0.10658304  0.50084612    -1.12700
O3251       O  0.88591350  0.06697026  0.54753169    -0.75200
O3252       O  0.87119756  0.09148241  0.55940580    -0.78600
O3253       O  0.90973599  0.14556760  0.95796107    -0.79300
C3254       C  0.87135286  0.07123460  0.56264389     0.95900
O3255       O  0.91648272  0.14162130  0.55095895    -0.77300
O3256       O  0.89843595  0.05846728  0.99026802    -0.82500
C3257       C  0.94937761  0.11521772  0.96786004     0.98500
C3258       C  0.88639756  0.05363154  0.96483927     1.04500
O3259       O  0.93249709  0.11530813  0.95118272    -0.78100
C3260       C  0.93205935  0.13650491  0.56249736     1.02800
Fe3261     Fe  0.87889749  0.26117355  0.52697805     1.65800
Fe3262     Fe  0.91436468  0.32543290  0.52289468     1.73200
Fe3263     Fe  0.89089018  0.28781128  0.95587259     1.54400
O3264       O  0.89862441  0.25913516  0.95419326    -0.81900
O3265       O  0.89683655  0.33865208  0.99415396    -0.80200
O3266       O  0.89328195  0.24432302  0.50162260    -0.84400
O3267       O  0.84680884  0.24613093  0.50064458    -0.79200
O3268       O  0.92862379  0.31273822  0.94993267    -0.81000
O3269       O  0.88586969  0.31622161  0.55473352    -0.83700
C3270       C  0.83761766  0.24744147  0.97621016     0.97000
C3271       C  0.89809514  0.24361386  0.97405304     1.04500
O3272       O  0.89558268  0.29242553  0.50210706    -1.12700
O3273       O  0.93285265  0.31400892  0.55247928    -0.75200
O3274       O  0.90904983  0.27225217  0.55598493    -0.78600
O3275       O  0.85260504  0.26250724  0.95600025    -0.79300
C3276       C  0.92876794  0.29293295  0.56260591     0.95900
O3277       O  0.86265892  0.27429948  0.55576448    -0.77300
O3278       O  0.94330983  0.33628092  0.99156756    -0.82500
C3279       C  0.88638443  0.33429017  0.96800850     0.98500
C3280       C  0.94659122  0.33000974  0.96518249     1.04500
O3281       O  0.88303308  0.31615775  0.95148070    -0.78100
C3282       C  0.86730279  0.29557771  0.56477549     1.02800
Fe3283     Fe  0.90018405  0.45067795  0.86646771     1.65800
Fe3284     Fe  0.83663464  0.41822165  0.85878493     1.73200
Fe3285     Fe  0.87402441  0.43616593  0.79449299     1.54400
O3286       O  0.90144157  0.47422004  0.79373116    -0.81900
O3287       O  0.82305512  0.38720059  0.83113699    -0.80200
O3288       O  0.91613030  0.48373845  0.84172928    -0.84400
O3289       O  0.91792685  0.43659744  0.84221470    -0.79200
O3290       O  0.84838571  0.44721212  0.78701030    -0.81000
O3291       O  0.84497100  0.39864725  0.89131097    -0.83700
C3292       C  0.91543920  0.42630837  0.81653811     0.97000
C3293       C  0.91467900  0.49005569  0.81424155     1.04500
O3294       O  0.87021017  0.43495671  0.83988945    -1.12700
O3295       O  0.84569512  0.44714120  0.88901009    -0.75200
O3296       O  0.88693915  0.46654392  0.89537180    -0.78600
O3297       O  0.89999062  0.42478972  0.79611686    -0.79300
C3298       C  0.86597905  0.46371875  0.90159675     0.95900
O3299       O  0.88666458  0.41942771  0.89381569    -0.77300
O3300       O  0.82436928  0.43569143  0.82845447    -0.82500
C3301       C  0.82805212  0.38235980  0.80501845     0.98500
C3302       C  0.83046028  0.44589819  0.80185100     1.04500
O3303       O  0.84661090  0.39867130  0.78930704    -0.78100
C3304       C  0.86529071  0.40125351  0.90165902     1.02800
Fe3305     Fe  0.54378960  0.44730564  0.86130398     1.65800
Fe3306     Fe  0.57916359  0.42175618  0.85317237     1.73200
Fe3307     Fe  0.55733770  0.43799264  0.79003887     1.54400
O3308       O  0.52024480  0.43070695  0.79181852    -0.81900
O3309       O  0.61018028  0.44559635  0.82721519    -0.80200
O3310       O  0.50961663  0.42380148  0.84105669    -0.84400
O3311       O  0.54984946  0.47584622  0.83161554    -0.79200
O3312       O  0.54323205  0.40005421  0.78576061    -0.81000
O3313       O  0.59475130  0.44889145  0.88814805    -0.83700
C3314       C  0.56189934  0.48602766  0.80712803     0.97000
C3315       C  0.50397234  0.42434023  0.81295455     1.04500
O3316       O  0.56013363  0.43558146  0.83480374    -1.12700
O3317       O  0.54971510  0.39648916  0.88106687    -0.75200
O3318       O  0.53495424  0.42040881  0.89533304    -0.78600
O3319       O  0.57127259  0.47624925  0.79105170    -0.79300
C3320       C  0.53613337  0.40071387  0.89828120     0.95900
O3321       O  0.57692480  0.47176586  0.88246322    -0.77300
O3322       O  0.56612828  0.39347156  0.81999420    -0.82500
C3323       C  0.61242536  0.44964447  0.79845639     0.98500
C3324       C  0.55130780  0.38651776  0.79671161     1.04500
O3325       O  0.59385821  0.44586560  0.78163584    -0.78100
C3326       C  0.59337027  0.46814124  0.89451262     1.02800
Fe3327     Fe  0.53689736  0.09081318  0.85739210     1.65800
Fe3328     Fe  0.57795002  0.15376005  0.85028228     1.73200
Fe3329     Fe  0.55392041  0.11736713  0.78618078     1.54400
O3330       O  0.56183270  0.08920026  0.78670553    -0.81900
O3331       O  0.56591219  0.17130630  0.81984629    -0.80200
O3332       O  0.54177021  0.06791492  0.82897240    -0.84400
O3333       O  0.50426452  0.08231688  0.83533538    -0.79200
O3334       O  0.59151889  0.14296715  0.77917558    -0.81000
O3335       O  0.54985541  0.14926921  0.87942615    -0.83700
C3336       C  0.49891888  0.08065559  0.80684519     0.97000
C3337       C  0.55252286  0.06974644  0.80383681     1.04500
O3338       O  0.55643918  0.12077066  0.83123719    -1.12700
O3339       O  0.59264332  0.13920525  0.88220870    -0.75200
O3340       O  0.56834274  0.09722460  0.88065426    -0.78600
O3341       O  0.51564604  0.09124971  0.78636985    -0.79300
C3342       C  0.58821656  0.11714135  0.88887614     0.95900
O3343       O  0.52818857  0.10826572  0.89027833    -0.77300
O3344       O  0.60838774  0.16314551  0.82262992    -0.82500
C3345       C  0.55324030  0.16555468  0.79492771     0.98500
C3346       C  0.61037094  0.15892494  0.79472596     1.04500
O3347       O  0.54594335  0.14513554  0.78110485    -0.78100
C3348       C  0.53248833  0.13032958  0.89364438     1.02800
C3349       C  0.53667085  0.00327248  0.79702131    -0.06000
C3350       C  0.56064280  0.00687431  0.79596591     0.00000
C3351       C  0.58180804  0.03127801  0.79167503    -0.08600
C3352       C  0.57808356  0.05179809  0.79060438    -0.06000
C3353       C  0.55412508  0.04809141  0.79505257    -0.00100
C3354       C  0.53286799  0.02330762  0.79696802    -0.08500
C3355       C  0.50586838  0.01633115  0.80101982     0.61900
H3356       H  0.52152480  0.48674427  0.79786612     0.12500
H3357       H  0.59403652  0.07091510  0.78909239     0.12600
C3358       C  0.60797518  0.03559353  0.79052630     0.62100
F3359       F  0.49094695  0.99926642  0.77870107    -0.23100
F3360       F  0.50274325  0.03659900  0.79860592    -0.20400
F3361       F  0.49753772  0.00510589  0.82965795    -0.20100
F3362       F  0.60991015  0.02356299  0.76526921    -0.20100
F3363       F  0.61276347  0.02599146  0.81699179    -0.20500
F3364       F  0.62608849  0.06100911  0.78817918    -0.23100
C3365       C  0.94511922  0.02788728  0.77239794    -0.06000
C3366       C  0.93070842  0.02060215  0.79921708     0.00000
C3367       C  0.93484173  0.03916242  0.82081521    -0.08600
C3368       C  0.95722627  0.06251221  0.81912113    -0.06000
C3369       C  0.97472746  0.06780543  0.79594383    -0.00100
C3370       C  0.96708663  0.05190309  0.76993281    -0.08500
C3371       C  0.48018697  0.05636041  0.74209856     0.61900
H3372       H  0.94068811  0.01390209  0.75499375     0.12500
H3373       H  0.96237517  0.07552441  0.83798680     0.12600
C3374       C  0.91778484  0.03379691  0.84799668     0.62100
F3375       F  0.46677448  0.04068367  0.71792715    -0.23100
F3376       F  0.50203832  0.05608383  0.74576939    -0.20400
F3377       F  0.48604170  0.08051173  0.73409097    -0.20100
F3378       F  0.92679440  0.02718368  0.87346159    -0.20100
F3379       F  0.89353492  0.01452928  0.84168059    -0.20500
F3380       F  0.91701748  0.05507145  0.85481203    -0.23100
C3381       C  0.94678391  0.42405734  0.78470401    -0.06000
C3382       C  0.93173354  0.41608842  0.81098739     0.00000
C3383       C  0.93592118  0.40241479  0.83430094    -0.08600
C3384       C  0.95816713  0.40216732  0.83382564    -0.06000
C3385       C  0.97556709  0.41368316  0.80981791    -0.00100
C3386       C  0.96836060  0.42225376  0.78315172    -0.08500
C3387       C  0.48682134  0.43728393  0.75067391     0.61900
H3388       H  0.94259966  0.43339019  0.76633596     0.12500
H3389       H  0.96236020  0.39367205  0.85322158     0.12600
C3390       C  0.91788994  0.38848393  0.86053962     0.62100
F3391       F  0.97024841  0.43341647  0.72960031    -0.23100
F3392       F  0.48897627  0.41751760  0.74057708    -0.20400
F3393       F  0.51041829  0.45810633  0.75537505    -0.20100
F3394       F  0.89472846  0.38581167  0.85552113    -0.20100
F3395       F  0.92803235  0.40127790  0.88766463    -0.20500
F3396       F  0.91404810  0.36447965  0.86365425    -0.23100
C3397       C  0.85699901  0.34096125  0.93630438    -0.06000
C3398       C  0.87812818  0.35127020  0.95587209     0.00000
C3399       C  0.89177047  0.37762782  0.96148239    -0.08600
C3400       C  0.88453374  0.39271957  0.94572552    -0.06000
C3401       C  0.86524984  0.38280142  0.92364845    -0.00100
C3402       C  0.85027231  0.35634795  0.91986236    -0.08500
C3403       C  0.82815245  0.34448095  0.89770672     0.61900
H3404       H  0.84637751  0.32074487  0.93301890     0.12500
H3405       H  0.89512168  0.41295072  0.94894226     0.12600
C3406       C  0.91498674  0.39038641  0.98205321     0.62100
F3407       F  0.81620778  0.31840714  0.89783062    -0.23100
F3408       F  0.83621593  0.35313017  0.86808742    -0.20400
F3409       F  0.81080074  0.35068896  0.90608608    -0.20100
F3410       F  0.93233162  0.38455159  0.97236503    -0.20100
F3411       F  0.91036500  0.38612016  0.51193213    -0.20500
F3412       F  0.92651495  0.41642819  0.98130503    -0.23100
C3413       C  0.50509819  0.35642825  0.91258433    -0.06000
C3414       C  0.51953020  0.38169599  0.92144809     0.00000
C3415       C  0.51390870  0.38890748  0.94942276    -0.08600
C3416       C  0.99051712  0.36679302  0.96493976    -0.06000
C3417       C  0.97220326  0.34410238  0.95119512    -0.00100
C3418       C  0.97881390  0.33624365  0.92412423    -0.08500
C3419       C  0.96202281  0.31051856  0.90978511     0.61900
H3420       H  0.51009604  0.35080540  0.89180659     0.12500
H3421       H  0.98660415  0.37231156  0.98661007     0.12600
C3422       C  0.53118201  0.41395321  0.96466727     0.62100
F3423       F  0.97452069  0.30555083  0.88768519    -0.23100
F3424       F  0.94154486  0.30956608  0.89569132    -0.20400
F3425       F  0.95408567  0.29175154  0.93214472    -0.20100
F3426       F  0.52108939  0.42910674  0.96155769    -0.20100
F3427       F  0.55501055  0.42624004  0.95235473    -0.20500
F3428       F  0.53346044  0.40994058  0.99567422    -0.23100
C3429       C  0.98145811  0.13871608  0.92741165    -0.06000
C3430       C  0.97400140  0.12273589  0.95355876     0.00000
C3431       C  0.98881576  0.11238592  0.96314076    -0.08600
C3432       C  0.51418633  0.12701366  0.94484615    -0.06000
C3433       C  0.51510762  0.13308007  0.91351383    -0.00100
C3434       C  0.00195183  0.14330581  0.90928815    -0.08500
C3435       C  0.00806685  0.15919922  0.88013451     0.61900
H3436       H  0.97045297  0.14690481  0.92053417     0.12500
H3437       H  0.52869740  0.12408089  0.95409385     0.12600
C3438       C  0.98257093  0.09527567  0.99138236     0.62100
F3439       F  0.99148537  0.16733971  0.87475315    -0.23100
F3440       F  0.49508992  0.12463442  0.84895825    -0.20400
F3441       F  0.51907386  0.16598740  0.86001486    -0.20100
F3442       F  0.95870100  0.07427683  0.98842145    -0.20100
F3443       F  0.98788895  0.11326422  0.51596327    -0.20500
F3444       F  0.51821565  0.12074870  0.00623877    -0.23100
C3445       C  0.88669386  0.01372109  0.96212272    -0.06000
C3446       C  0.87823336  0.02907733  0.94928693     0.00000
C3447       C  0.86430915  0.02145920  0.92099321    -0.08600
C3448       C  0.85518655  0.49560952  0.91218153    -0.06000
C3449       C  0.86588463  0.48188253  0.92277241    -0.00100
C3450       C  0.87876130  0.48790145  0.95133604    -0.08500
C3451       C  0.88777537  0.47148042  0.96579232     0.61900
H3452       H  0.89699781  0.01912683  0.98364406     0.12500
H3453       H  0.84493728  0.49024071  0.89056245     0.12600
C3454       C  0.85434025  0.03647897  0.90473732     0.62100
F3455       F  0.89536832  0.47795968  0.99603419    -0.23100
F3456       F  0.90787387  0.47412175  0.94963644    -0.20400
F3457       F  0.86851628  0.44644777  0.96558564    -0.20100
F3458       F  0.87415624  0.05951916  0.89474312    -0.20100
F3459       F  0.83939634  0.04010677  0.92446137    -0.20500
F3460       F  0.83991058  0.02421288  0.87912556    -0.23100
C3461       C  0.89741892  0.18652390  0.94472659    -0.06000
C3462       C  0.91191076  0.18404513  0.96795338     0.00000
C3463       C  0.92643559  0.20429777  0.98805740    -0.08600
C3464       C  0.92338939  0.22508417  0.98685752    -0.06000
C3465       C  0.90637072  0.22611774  0.96632314    -0.00100
C3466       C  0.89407503  0.20728468  0.94380471    -0.08500
C3467       C  0.87584079  0.20795348  0.92089093     0.61900
H3468       H  0.88648696  0.17075719  0.92958905     0.12500
H3469       H  0.93303463  0.23983104  0.00371693     0.12600
C3470       C  0.94399386  0.20408668  0.01245823     0.62100
F3471       F  0.86529879  0.18733371  0.90169649    -0.23100
F3472       F  0.88828447  0.22954446  0.90278737    -0.20400
F3473       F  0.85929952  0.21231751  0.43405267    -0.20100
F3474       F  0.94778858  0.18419374  0.00933514    -0.20100
F3475       F  0.93422471  0.20255126  0.04128469    -0.20500
F3476       F  0.96708967  0.22624864  0.01030279    -0.23100
C3477       C  0.63251153  0.09586813  0.91683885    -0.06000
C3478       C  0.64425514  0.11183355  0.94191335     0.00000
C3479       C  0.63784463  0.12997365  0.94890213    -0.08600
C3480       C  0.61913480  0.13076506  0.93138342    -0.06000
C3481       C  0.60712417  0.11449591  0.90673940    -0.00100
C3482       C  0.61427649  0.09703551  0.89876832    -0.08500
C3483       C  0.60355290  0.08029852  0.87072732     0.61900
H3484       H  0.63769072  0.08219854  0.91157467     0.12500
H3485       H  0.61387538  0.14437524  0.93658931     0.12600
C3486       C  0.65196299  0.14966687  0.97298420     0.62100
F3487       F  0.61643804  0.06833045  0.86431761    -0.23100
F3488       F  0.60521189  0.09473065  0.84516712    -0.20400
F3489       F  0.57876588  0.06186439  0.87574854    -0.20100
F3490       F  0.67695654  0.16341081  0.96490909    -0.20100
F3491       F  0.64906667  0.13814980  0.00142522    -0.20500
F3492       F  0.64360368  0.16631229  0.97516863    -0.23100
C3493       C  0.62287074  0.01783084  0.95067114    -0.06000
C3494       C  0.64831393  0.02575274  0.94826911     0.00000
C3495       C  0.65495614  0.01119517  0.93033564    -0.08600
C3496       C  0.63654828  0.49270689  0.91676380    -0.06000
C3497       C  0.61177999  0.48752876  0.91615670    -0.00100
C3498       C  0.60401772  0.99737627  0.93410094    -0.08500
C3499       C  0.57923889  0.49757780  0.93653112     0.61900
H3500       H  0.61779317  0.02883321  0.96439917     0.12500
H3501       H  0.64110213  0.48146188  0.90269172     0.12600
C3502       C  0.68172430  0.01701890  0.92896694     0.62100
F3503       F  0.57416571  0.00119778  0.96410506    -0.23100
F3504       F  0.56186076  0.47216762  0.94006886    -0.20400
F3505       F  0.57016022  0.00007541  0.91279324    -0.20100
F3506       F  0.69126407  0.01933229  0.95845597    -0.20100
F3507       F  0.69649648  0.03917644  0.91258869    -0.20500
F3508       F  0.68282578  0.49787629  0.92140226    -0.23100
C3509       C  0.77109300  0.19933790  0.99029109    -0.06000
C3510       C  0.76587359  0.18472995  0.96391540     0.00000
C3511       C  0.78027273  0.19601383  0.93715490    -0.08600
C3512       C  0.80329991  0.21904676  0.94035911    -0.06000
C3513       C  0.81066210  0.23117860  0.96891810    -0.00100
C3514       C  0.79272834  0.22316078  0.99258442    -0.08500
C3515       C  0.79721743  0.23797609  0.02176298     0.61900
H3516       H  0.75915264  0.19114098  0.01037448     0.12500
H3517       H  0.81654145  0.22639742  0.92142965     0.12600
C3518       C  0.77161662  0.18366501  0.90607887     0.62100
F3519       F  0.77512457  0.23576863  0.03118349    -0.23100
F3520       F  0.81449391  0.26340113  0.01708263    -0.20400
F3521       F  0.80349869  0.23191603  0.54285434    -0.20100
F3522       F  0.74809946  0.17969234  0.89952712    -0.20100
F3523       F  0.77029161  0.16079352  0.90612462    -0.20500
F3524       F  0.78768669  0.19872334  0.88287969    -0.23100
C3525       C  0.77454884  0.07228425  0.98108639    -0.06000
C3526       C  0.77382925  0.09144292  0.96424875     0.00000
C3527       C  0.79425036  0.10771673  0.94491088    -0.08600
C3528       C  0.81589922  0.10607383  0.94594388    -0.06000
C3529       C  0.81763209  0.08899193  0.96588355    -0.00100
C3530       C  0.79597358  0.07040627  0.98160712    -0.08500
C3531       C  0.79495471  0.04884293  0.99985536     0.61900
H3532       H  0.75863523  0.05937652  0.99517407     0.12500
H3533       H  0.83397179  0.11934055  0.43322799     0.12600
C3534       C  0.79641672  0.12858533  0.42422118     0.62100
F3535       F  0.77377908  0.02635687  0.99138936    -0.23100
F3536       F  0.79376541  0.05243005  0.03091054    -0.20400
F3537       F  0.81551697  0.04673143  0.99454903    -0.20100
F3538       F  0.79542282  0.14606625  0.44234454    -0.20100
F3539       F  0.77433765  0.11781010  0.90525491    -0.20500
F3540       F  0.81789057  0.14119314  0.40658726    -0.23100
C3541       C  0.93893231  0.27345651  0.60590358    -0.06000
C3542       C  0.94775214  0.29182769  0.58237707     0.00000
C3543       C  0.97382070  0.30623569  0.57611706    -0.08600
C3544       C  0.99003041  0.30133732  0.59356435    -0.06000
C3545       C  0.98111210  0.28220603  0.61628399    -0.00100
C3546       C  0.95498108  0.26805504  0.62282285    -0.08500
C3547       C  0.94355561  0.24644324  0.64626378     0.61900
H3548       H  0.91897597  0.26273574  0.61031631     0.12500
H3549       H  0.00995014  0.31209195  0.58896098     0.12600
C3550       C  0.98446737  0.32563810  0.55003409     0.62100
F3551       F  0.91762270  0.23378619  0.64624372    -0.23100
F3552       F  0.95178960  0.25565726  0.67553175    -0.20400
F3553       F  0.95026403  0.22908184  0.63950497    -0.20100
F3554       F  0.98096709  0.34537306  0.55604614    -0.20100
F3555       F  0.97263691  0.31444098  0.52267388    -0.20500
F3556       F  0.00991460  0.33565705  0.54629953    -0.23100
C3557       C  0.96089324  0.18175821  0.62908668    -0.06000
C3558       C  0.98648830  0.19219979  0.62351745     0.00000
C3559       C  0.99397800  0.18117692  0.60116586    -0.08600
C3560       C  0.97555962  0.16246181  0.58210408    -0.06000
C3561       C  0.95006565  0.15395616  0.58556794    -0.00100
C3562       C  0.94242456  0.16293423  0.61031388    -0.08500
C3563       C  0.91501291  0.15332506  0.61664793     0.61900
H3564       H  0.95539437  0.18997180  0.64670627     0.12500
H3565       H  0.98122431  0.15494647  0.56375216     0.12600
C3566       C  0.52204372  0.19551856  0.58758825     0.62100
F3567       F  0.91189670  0.16132628  0.64481008    -0.23100
F3568       F  0.90139078  0.12723345  0.61706117    -0.20400
F3569       F  0.90547221  0.16218179  0.59418254    -0.20100
F3570       F  0.53613097  0.19951431  0.61408633    -0.20100
F3571       F  0.53100852  0.21809029  0.57168365    -0.20500
F3572       F  0.52522273  0.17946516  0.56917955    -0.23100
C3573       C  0.52729343  0.33258370  0.73853009    -0.06000
C3574       C  0.54019444  0.32092206  0.74881402     0.00000
C3575       C  0.55344930  0.32832606  0.77708495    -0.08600
C3576       C  0.55542952  0.34893096  0.79258251    -0.06000
C3577       C  0.54445943  0.36236273  0.78103412    -0.00100
C3578       C  0.52890077  0.35309231  0.75411951    -0.08500
C3579       C  0.51424670  0.36458954  0.74106481     0.61900
H3580       H  0.51687700  0.32622663  0.71710741     0.12500
H3581       H  0.56649718  0.35519449  0.81351926     0.12600
C3582       C  0.56509928  0.31423903  0.79117703     0.62100
F3583       F  0.49844598  0.35053465  0.71719270    -0.23100
F3584       F  0.53057104  0.38861808  0.72963471    -0.20400
F3585       F  0.49948344  0.36549088  0.76374486    -0.20100
F3586       F  0.58546995  0.31873237  0.77402136    -0.20100
F3587       F  0.54741129  0.28866625  0.79188218    -0.20500
F3588       F  0.57329993  0.32165012  0.82104616    -0.23100
C3589       C  0.52735928  0.19786069  0.74466203    -0.06000
C3590       C  0.54639315  0.22323616  0.74834429     0.00000
C3591       C  0.56629404  0.22944103  0.76949665    -0.08600
C3592       C  0.56671919  0.20983257  0.78532013    -0.06000
C3593       C  0.54857673  0.18441680  0.78027546    -0.00100
C3594       C  0.52815251  0.17815446  0.75994954    -0.08500
C3595       C  0.00498844  0.15485335  0.76777576     0.61900
H3596       H  0.01023742  0.19614299  0.73900355     0.12500
H3597       H  0.58229887  0.21430585  0.80064147     0.12600
C3598       C  0.58733251  0.25640800  0.77545859     0.62100
F3599       F  0.98338638  0.15446791  0.75899146    -0.23100
F3600       F  0.49849049  0.13772111  0.78092509    -0.20400
F3601       F  0.00964009  0.14158062  0.74651566    -0.20100
F3602       F  0.60161645  0.25799687  0.80098617    -0.20100
F3603       F  0.60315943  0.26588470  0.75043963    -0.20500
F3604       F  0.57739538  0.27124605  0.78080948    -0.23100
C3605       C  0.70064639  0.01229709  0.59005449    -0.06000
C3606       C  0.71795040  0.02190547  0.61465359    -0.02700
C3607       C  0.72882770  0.04782285  0.62245590    -0.08600
C3608       C  0.72236978  0.06289075  0.60484249    -0.06000
C3609       C  0.70625482  0.05360997  0.57931435    -0.00100
C3610       C  0.69477326  0.02771019  0.57197643    -0.08500
C3611       C  0.67749729  0.01661041  0.54427066     0.61900
H3612       H  0.69219859  0.99256546  0.58445501     0.12500
H3613       H  0.73082099  0.08269974  0.61008247     0.12600
C3614       C  0.74596832  0.56040956  0.65023872     0.62100
F3615       F  0.66951092  0.99142121  0.54039047    -0.23100
F3616       F  0.68994873  0.02964000  0.51787888    -0.20400
F3617       F  0.65649534  0.01829807  0.54796944    -0.20100
F3618       F  0.75517818  0.58609688  0.65065962    -0.20100
F3619       F  0.76824060  0.05713261  0.64262545    -0.20500
F3620       F  0.73785921  0.05013609  0.67614631    -0.23100
C3621       C  0.85022142  0.05982640  0.61315354    -0.06000
C3622       C  0.85297029  0.05189173  0.58426935     0.00000
C3623       C  0.83602726  0.02679263  0.57521341    -0.08600
C3624       C  0.81557969  0.01119784  0.59436591    -0.06000
C3625       C  0.81126471  0.01974492  0.62214331    -0.00100
C3626       C  0.82999523  0.04408697  0.63272608    -0.08500
C3627       C  0.82895662  0.05390332  0.66405635     0.61900
H3628       H  0.86376209  0.07897639  0.61982550     0.12500
H3629       H  0.80213528  0.99227330  0.58687971     0.12600
C3630       C  0.83871112  0.01684340  0.54474216     0.62100
F3631       F  0.85043217  0.07688004  0.67031287    -0.23100
F3632       F  0.82674933  0.03693406  0.68677352    -0.20400
F3633       F  0.80891466  0.55906144  0.66624278    -0.20100
F3634       F  0.86076684  0.01671437  0.54485818    -0.20100
F3635       F  0.83906454  0.03197370  0.52070804    -0.20500
F3636       F  0.81914623  0.99245295  0.53943663    -0.23100
C3637       C  0.64334534  0.47191617  0.75588083    -0.06000
C3638       C  0.63730400  0.45813592  0.78386363     0.00000
C3639       C  0.65432005  0.45117802  0.79595902    -0.08600
C3640       C  0.67537675  0.45659358  0.77847305    -0.06000
C3641       C  0.68053741  0.46907437  0.74993905    -0.00100
C3642       C  0.66483303  0.47769628  0.73881885    -0.08500
C3643       C  0.66520313  0.98314137  0.69924054     0.61900
H3644       H  0.63070340  0.47762098  0.74700802     0.12500
H3645       H  0.68775277  0.45026616  0.78646653     0.12600
C3646       C  0.65012253  0.43713668  0.82651152     0.62100
F3647       F  0.64618314  0.98729293  0.69073811    -0.23100
F3648       F  0.66547095  0.96674668  0.67839011    -0.20400
F3649       F  0.68769192  0.00596449  0.69767343    -0.20100
F3650       F  0.62709511  0.41479940  0.82624631    -0.20100
F3651       F  0.65112186  0.45212692  0.85026993    -0.20500
F3652       F  0.66822476  0.43108522  0.83246395    -0.23100
C3653       C  0.79067016  0.44556701  0.79879059    -0.06000
C3654       C  0.81500842  0.45539888  0.78730465     0.00000
C3655       C  0.82310998  0.47300740  0.76218002    -0.08600
C3656       C  0.80568915  0.47808005  0.74800314    -0.06000
C3657       C  0.78077813  0.46629582  0.75795098    -0.00100
C3658       C  0.77352015  0.45090543  0.78480807    -0.08500
C3659       C  0.74751660  0.43933703  0.79839863     0.61900
H3660       H  0.78450246  0.43252561  0.81817257     0.12500
H3661       H  0.81010464  0.99217969  0.73150973     0.12600
C3662       C  0.84966923  0.48624067  0.74972631     0.62100
F3663       F  0.74731018  0.43267940  0.82903772    -0.23100
F3664       F  0.73081629  0.41786247  0.78245118    -0.20400
F3665       F  0.73962565  0.45643054  0.79684037    -0.20100
F3666       F  0.85355560  0.46914802  0.73473671    -0.20100
F3667       F  0.86280173  0.00199024  0.78705315    -0.20500
F3668       F  0.85364746  0.01454789  0.74284137    -0.23100
C3669       C  0.63251678  0.39695049  0.64817643    -0.06000
C3670       C  0.65284936  0.39885655  0.63248984     0.00000
C3671       C  0.64891006  0.38009794  0.61126915    -0.08600
C3672       C  0.62475622  0.35863200  0.60866974    -0.06000
C3673       C  0.60538675  0.35522229  0.62778905    -0.00100
C3674       C  0.60853181  0.37543511  0.64565343    -0.08500
C3675       C  0.58761150  0.37362298  0.66481296     0.61900
H3676       H  0.63575348  0.41156027  0.66415979     0.12500
H3677       H  0.62180534  0.34284076  0.59512220     0.12600
C3678       C  0.67059526  0.38131617  0.59433182     0.62100
F3679       F  0.58778929  0.39597908  0.66235435    -0.23100
F3680       F  0.59112305  0.36940455  0.69532711    -0.20400
F3681       F  0.56432071  0.35431529  0.65507905    -0.20100
F3682       F  0.68785288  0.38202102  0.61529344    -0.20100
F3683       F  0.68212406  0.40272646  0.57581513    -0.20500
F3684       F  0.66272643  0.36058306  0.57582353    -0.23100
C3685       C  0.81897633  0.27538034  0.62825823    -0.06000
C3686       C  0.80876449  0.29046279  0.62148557     0.00000
C3687       C  0.82118644  0.31057731  0.59975426    -0.08600
C3688       C  0.84121194  0.31261540  0.58262429    -0.06000
C3689       C  0.84961623  0.29573747  0.58726638    -0.00100
C3690       C  0.83944563  0.27792504  0.61194236    -0.08500
C3691       C  0.85001045  0.26151166  0.62122898     0.61900
H3692       H  0.80997089  0.26050403  0.64548295     0.12500
H3693       H  0.84960747  0.32671369  0.56440965     0.12600
C3694       C  0.81353068  0.32989762  0.59458481     0.62100
F3695       F  0.84223489  0.25107840  0.65034933    -0.23100
F3696       F  0.87594307  0.27584858  0.62165422    -0.20400
F3697       F  0.84205902  0.24198664  0.60075576    -0.20100
F3698       F  0.80888945  0.33697906  0.62248921    -0.20100
F3699       F  0.79221424  0.31982402  0.57635814    -0.20500
F3700       F  0.83229107  0.35145509  0.58010915    -0.23100
C3701       C  0.71067711  0.19778126  0.58000277    -0.06000
C3702       C  0.71544433  0.19781005  0.61170014     0.00000
C3703       C  0.71618224  0.17674376  0.62462132    -0.08600
C3704       C  0.71123053  0.15657587  0.60531581    -0.06000
C3705       C  0.70756638  0.15738634  0.57359961    -0.00100
C3706       C  0.70798328  0.17873425  0.56060928    -0.08500
C3707       C  0.70674911  0.18333821  0.52652154     0.61900
H3708       H  0.71067069  0.21378861  0.56952733     0.12500
H3709       H  0.71178872  0.14051340  0.61450911     0.12600
C3710       C  0.72361543  0.17563408  0.65788292     0.62100
F3711       F  0.68633375  0.18583669  0.52077811    -0.23100
F3712       F  0.70492243  0.16431982  0.50866786    -0.20400
F3713       F  0.72807410  0.20566669  0.51792085    -0.20100
F3714       F  0.70818644  0.17831463  0.67770298    -0.20100
F3715       F  0.74826931  0.19457556  0.66278695    -0.20500
F3716       F  0.72176742  0.15290088  0.66516880    -0.23100
C3717       C  0.77012454  0.32048788  0.78040191    -0.06000
C3718       C  0.77992438  0.31352712  0.75641473     0.00000
C3719       C  0.80611045  0.32732036  0.75125520    -0.08600
C3720       C  0.82134765  0.34868568  0.76927944    -0.06000
C3721       C  0.81124224  0.35699742  0.79154503    -0.00100
C3722       C  0.78511536  0.34216460  0.79788540    -0.08500
C3723       C  0.77248044  0.34965081  0.82144863     0.61900
H3724       H  0.75006847  0.30941576  0.78411150     0.12500
H3725       H  0.84132504  0.35981779  0.76508278     0.12600
C3726       C  0.81777292  0.32058162  0.72566759     0.62100
F3727       F  0.77688248  0.37347474  0.81442803    -0.23100
F3728       F  0.78162367  0.34943023  0.85056292    -0.20400
F3729       F  0.74675926  0.33321082  0.82203311    -0.20100
F3730       F  0.84344652  0.33706005  0.72404100    -0.20100
F3731       F  0.80746456  0.32149732  0.69761794    -0.20500
F3732       F  0.81342585  0.29656592  0.73081124    -0.23100
C3733       C  0.63425790  0.17407897  0.74595698    -0.06000
C3734       C  0.63494809  0.17423153  0.77840370     0.00000
C3735       C  0.65842637  0.19009483  0.79339682    -0.08600
C3736       C  0.67933350  0.20715705  0.77540229    -0.06000
C3737       C  0.67773276  0.20810184  0.74327697    -0.00100
C3738       C  0.65525283  0.19060923  0.72819067    -0.08500
C3739       C  0.65342388  0.18977675  0.69331579     0.61900
H3740       H  0.61676206  0.16155130  0.73427827     0.12500
H3741       H  0.69685640  0.22067252  0.78638988     0.12600
C3742       C  0.66175924  0.18934672  0.82800698     0.62100
F3743       F  0.62978659  0.17162703  0.68300294    -0.23100
F3744       F  0.67045331  0.18430180  0.68186143    -0.20400
F3745       F  0.65883667  0.21284687  0.68155759    -0.20100
F3746       F  0.65159697  0.16461779  0.83805576    -0.20100
F3747       F  0.65016396  0.20010046  0.84260782    -0.20500
F3748       F  0.68682617  0.20254559  0.83649551    -0.23100
C3749       C  0.75630203  0.36764277  0.67442238    -0.06000
C3750       C  0.75027633  0.35418934  0.64684341     0.00000
C3751       C  0.74906337  0.36629773  0.61934762    -0.08600
C3752       C  0.74715742  0.38799496  0.62186113    -0.06000
C3753       C  0.74903683  0.39895403  0.65060257    -0.00100
C3754       C  0.75710903  0.39052838  0.67637002    -0.08500
C3755       C  0.76550834  0.40450478  0.70661040     0.61900
H3756       H  0.75945180  0.35961861  0.69515462     0.12500
H3757       H  0.74306437  0.39574406  0.60164551     0.12600
C3758       C  0.75072487  0.35719251  0.58788796     0.62100
F3759       F  0.78389531  0.40141436  0.72040110    -0.23100
F3760       F  0.74536906  0.39510130  0.72635031    -0.20400
F3761       F  0.77565296  0.43013627  0.70201974    -0.20100
F3762       F  0.73025139  0.33358613  0.58215437    -0.20100
F3763       F  0.77222606  0.35608523  0.58662586    -0.20500
F3764       F  0.75195709  0.37343416  0.56471310    -0.23100
C3765       C  0.63246661  0.24253973  0.64955510    -0.06000
C3766       C  0.65288131  0.25965399  0.63137356     0.00000
C3767       C  0.64976073  0.27559560  0.61021958    -0.08600
C3768       C  0.62691929  0.27499251  0.60984790    -0.06000
C3769       C  0.60808740  0.26021474  0.63110543    -0.00100
C3770       C  0.61015715  0.24261056  0.65008007    -0.08500
C3771       C  0.59020904  0.22484121  0.67278888     0.61900
H3772       H  0.63468519  0.23027764  0.66598551     0.12500
H3773       H  0.62487778  0.28847126  0.59573516     0.12600
C3774       C  0.67151696  0.29580604  0.59174589     0.62100
F3775       F  0.58467496  0.20047602  0.66815119    -0.23100
F3776       F  0.56811564  0.22477449  0.66982523    -0.20400
F3777       F  0.59930895  0.23176347  0.70243354    -0.20100
F3778       F  0.68114124  0.28498535  0.57337328    -0.20100
F3779       F  0.68972046  0.31238927  0.61193439    -0.20500
F3780       F  0.66458089  0.30941542  0.57283272    -0.23100
Fe3781     Fe  0.71786292  0.78494504  0.19753876     1.65800
Fe3782     Fe  0.74889221  0.75355529  0.19022861     1.73200
Fe3783     Fe  0.73300848  0.77610502  0.12570812     1.54400
O3784       O  0.69526006  0.76593537  0.12363951    -0.81900
O3785       O  0.78062179  0.77227198  0.16252981    -0.80200
O3786       O  0.68634726  0.77171908  0.17097113    -0.84400
O3787       O  0.73488983  0.81899831  0.17482838    -0.79200
O3788       O  0.72239174  0.73889637  0.11785312    -0.81000
O3789       O  0.76840107  0.78085062  0.22330564    -0.83700
C3790       C  0.74391911  0.82795262  0.14849462     0.97000
C3791       C  0.68027122  0.76590653  0.14315398     1.04500
O3792       O  0.73322742  0.77142858  0.17103482    -1.12700
O3793       O  0.71863930  0.73166234  0.21994571    -0.75200
O3794       O  0.69878306  0.75257330  0.22361365    -0.78600
O3795       O  0.74473341  0.81440132  0.12758868    -0.79300
C3796       C  0.70092612  0.73384122  0.23033940     0.95900
O3797       O  0.74732331  0.80037169  0.22758936    -0.77300
O3798       O  0.73243155  0.72449253  0.15942791    -0.82500
C3799       C  0.78586863  0.78346974  0.13637430     0.98500
C3800       C  0.72446272  0.72183145  0.13198864     1.04500
O3801       O  0.77021920  0.78674932  0.12121597    -0.78100
C3802       C  0.76536883  0.79757333  0.23509564     1.02800
Fe3803     Fe  0.71246581  0.93028294  0.19713488     1.65800
Fe3804     Fe  0.74773015  0.49540738  0.18994758     1.73200
Fe3805     Fe  0.73014508  0.95764317  0.12569285     1.54400
O3806       O  0.74041422  0.93047869  0.12836953    -0.81900
O3807       O  0.73383337  0.51011459  0.15819968    -0.80200
O3808       O  0.72810332  0.91311577  0.17489679    -0.84400
O3809       O  0.68141997  0.91386033  0.16954945    -0.79200
O3810       O  0.76742404  0.98411347  0.12244295    -0.81000
O3811       O  0.71660942  0.48612062  0.21674595    -0.83700
C3812       C  0.67656473  0.91523661  0.14149339     0.97000
C3813       C  0.73866288  0.91516611  0.14950966     1.04500
O3814       O  0.72987987  0.96081520  0.17103641    -1.12700
O3815       O  0.76394840  0.48447385  0.22377669    -0.75200
O3816       O  0.74150530  0.94280339  0.22792962    -0.78600
O3817       O  0.69266833  0.93051394  0.12247287    -0.79300
C3818       C  0.76058213  0.96365201  0.23528254     0.95900
O3819       O  0.69470807  0.94361817  0.22264566    -0.77300
O3820       O  0.78096698  0.50944840  0.16590977    -0.82500
C3821       C  0.72544754  0.50563690  0.13088667     0.98500
C3822       C  0.78692182  0.50448339  0.14044257     1.04500
O3823       O  0.72055064  0.98478275  0.11752434    -0.78100
C3824       C  0.69842168  0.96508012  0.22911075     1.02800
Fe3825     Fe  0.57355088  0.78866954  0.19519758     1.65800
Fe3826     Fe  0.01263454  0.75472637  0.18565381     1.73200
Fe3827     Fe  0.54660878  0.77202474  0.12456350     1.54400
O3828       O  0.57555675  0.80919121  0.12278821    -0.81900
O3829       O  0.00096520  0.72326682  0.15858491    -0.80200
O3830       O  0.58553751  0.82158905  0.17127889    -0.84400
O3831       O  0.59399201  0.77871664  0.16821927    -0.79200
O3832       O  0.52196568  0.78453021  0.11900716    -0.81000
O3833       O  0.52225967  0.73860605  0.22502805    -0.83700
C3834       C  0.59025564  0.76593517  0.14414728     0.97000
C3835       C  0.58690498  0.82620959  0.14268487     1.04500
O3836       O  0.54348636  0.77081991  0.16954674    -1.12700
O3837       O  0.51740213  0.78346911  0.21371010    -0.75200
O3838       O  0.55776510  0.80100476  0.22624817    -0.78600
O3839       O  0.57171799  0.75959138  0.12618138    -0.79300
C3840       C  0.53678566  0.79936059  0.22853360     0.95900
O3841       O  0.56368094  0.75740435  0.22123029    -0.77300
O3842       O  0.99618540  0.76815612  0.15596978    -0.82500
C3843       C  0.00467716  0.72064951  0.13055450     0.98500
C3844       C  0.00137784  0.78034814  0.13079329     1.04500
O3845       O  0.51796954  0.73521987  0.11963109    -0.78100
C3846       C  0.54305190  0.74102460  0.23302092     1.02800
Fe3847     Fe  0.74068341  0.62142708  0.02300661     1.65800
Fe3848     Fe  0.67724539  0.59066663  0.01706927     1.73200
Fe3849     Fe  0.71294571  0.60708248  0.45170161     1.54400
O3850       O  0.73388761  0.64614443  0.45338600    -0.81900
O3851       O  0.66227981  0.55958892  0.48415545    -0.80200
O3852       O  0.75888660  0.65181185  0.99353216    -0.84400
O3853       O  0.75437854  0.60195732  0.00210788    -0.79200
O3854       O  0.68108456  0.60880720  0.44376696    -0.81000
O3855       O  0.68523548  0.56944944  0.04758911    -0.83700
C3856       C  0.75698480  0.59981792  0.47168058     0.97000
C3857       C  0.75249449  0.65944254  0.47095920     1.04500
O3858       O  0.71022038  0.60612154  0.99744066    -1.12700
O3859       O  0.68874362  0.62012769  0.04827940    -0.75200
O3860       O  0.73053278  0.64254285  0.04734770    -0.78600
O3861       O  0.74556670  0.60518602  0.45131783    -0.79300
C3862       C  0.70980352  0.63916536  0.05609308     0.95900
O3863       O  0.72634693  0.59304514  0.05554136    -0.77300
O3864       O  0.66427308  0.60768892  0.48869855    -0.82500
C3865       C  0.66965193  0.55373897  0.46020904     0.98500
C3866       C  0.66490589  0.61002390  0.45964064     1.04500
O3867       O  0.69106975  0.56826566  0.44821582    -0.78100
C3868       C  0.70525695  0.57332147  0.06062007     1.02800
Fe3869     Fe  0.88337833  0.61684715  0.03013792     1.65800
Fe3870     Fe  0.91519100  0.58632198  0.02216377     1.73200
Fe3871     Fe  0.89899293  0.60960035  0.45692636     1.54400
O3872       O  0.86191683  0.60092082  0.45575612    -0.81900
O3873       O  0.94790535  0.60890818  0.49512337    -0.80200
O3874       O  0.84988402  0.59984062  0.00671716    -0.84400
O3875       O  0.89702212  0.64925980  0.00410831    -0.79200
O3876       O  0.88604107  0.57184135  0.45123014    -0.81000
O3877       O  0.93661947  0.61622846  0.05168054    -0.83700
C3878       C  0.90876657  0.66120027  0.47623226     0.97000
C3879       C  0.84629569  0.59874000  0.47579739     1.04500
O3880       O  0.89800093  0.60267847  0.00339816    -1.12700
O3881       O  0.88845993  0.56679720  0.05558263    -0.75200
O3882       O  0.86776462  0.58672307  0.06014731    -0.78600
O3883       O  0.91169436  0.64783407  0.45705656    -0.79300
C3884       C  0.87156151  0.56920650  0.06767413     0.95900
O3885       O  0.91501950  0.63536361  0.05658558    -0.77300
O3886       O  0.89991075  0.55980690  0.49137895    -0.82500
C3887       C  0.95231855  0.61752786  0.46778960     0.98500
C3888       C  0.88867852  0.55534798  0.46549706     1.04500
O3889       O  0.93583860  0.61868260  0.45143325    -0.78100
C3890       C  0.93359727  0.63317482  0.06305981     1.02800
Fe3891     Fe  0.88125099  0.76179270  0.02770939     1.65800
Fe3892     Fe  0.91483591  0.82583228  0.02118861     1.73200
Fe3893     Fe  0.89280279  0.79003761  0.45955099     1.54400
O3894       O  0.89979695  0.76080715  0.45741625    -0.81900
O3895       O  0.89974069  0.84186538  0.49728326    -0.80200
O3896       O  0.89594477  0.74462145  0.00360212    -0.84400
O3897       O  0.84909099  0.74567527  0.00131109    -0.79200
O3898       O  0.93036358  0.81422469  0.45302012    -0.81000
O3899       O  0.88685251  0.81659058  0.05376951    -0.83700
C3900       C  0.84007139  0.74965786  0.48091451     0.97000
C3901       C  0.90058996  0.74594407  0.47722116     1.04500
O3902       O  0.89711428  0.79234204  0.00171505    -1.12700
O3903       O  0.93470990  0.81649688  0.05089682    -0.75200
O3904       O  0.91180497  0.77472412  0.05643614    -0.78600
O3905       O  0.85455556  0.76538591  0.46085409    -0.79300
C3906       C  0.93120222  0.79596635  0.06213546     0.95900
O3907       O  0.86449278  0.77472530  0.05587869    -0.77300
O3908       O  0.94570402  0.83868345  0.49392016    -0.82500
C3909       C  0.88972432  0.83767124  0.47083776     0.98500
C3910       C  0.94851651  0.83179781  0.46762501     1.04500
O3911       O  0.88591265  0.81908387  0.45486912    -0.78100
C3912       C  0.86876967  0.79593818  0.06450657     1.02800
Fe3913     Fe  0.90495558  0.95468221  0.36177678     1.65800
Fe3914     Fe  0.84119580  0.92148293  0.35801124     1.73200
Fe3915     Fe  0.87577437  0.93872381  0.29134608     1.54400
O3916       O  0.90246517  0.97701479  0.28899882    -0.81900
O3917       O  0.82723723  0.88960104  0.33190385    -0.80200
O3918       O  0.91916733  0.98719680  0.33608851    -0.84400
O3919       O  0.92203413  0.94059584  0.33596539    -0.79200
O3920       O  0.84913663  0.94871237  0.28565004    -0.81000
O3921       O  0.85172231  0.90365594  0.39060329    -0.83700
C3922       C  0.91890873  0.93035367  0.31008493     0.97000
C3923       C  0.91646027  0.99314255  0.30886491     1.04500
O3924       O  0.87391237  0.93820421  0.33698693    -1.12700
O3925       O  0.85114318  0.95166006  0.38630980    -0.75200
O3926       O  0.89250672  0.97085929  0.39177877    -0.78600
O3927       O  0.90259701  0.92839364  0.29070048    -0.79300
C3928       C  0.87172138  0.96856704  0.39794862     0.95900
O3929       O  0.89338681  0.92392950  0.39004483    -0.77300
O3930       O  0.82631229  0.93683260  0.32817360    -0.82500
C3931       C  0.83130827  0.88454215  0.30535399     0.98500
C3932       C  0.83127664  0.94670322  0.30137150     1.04500
O3933       O  0.84877990  0.90082574  0.28822415    -0.78100
C3934       C  0.87234556  0.90612334  0.39946513     1.02800
Fe3935     Fe  0.54402984  0.94410643  0.36313185     1.65800
Fe3936     Fe  0.57991710  0.91905505  0.35346390     1.73200
Fe3937     Fe  0.55857961  0.93704260  0.29152260     1.54400
O3938       O  0.52178930  0.92982806  0.29305593    -0.81900
O3939       O  0.61110098  0.94328125  0.32813450    -0.80200
O3940       O  0.50997831  0.92121408  0.34179328    -0.84400
O3941       O  0.55048183  0.97349494  0.33464666    -0.79200
O3942       O  0.54427984  0.89929271  0.28601013    -0.81000
O3943       O  0.59547951  0.94563488  0.38913662    -0.83700
C3944       C  0.56268006  0.98442828  0.31045318     0.97000
C3945       C  0.50498440  0.92250862  0.31357138     1.04500
O3946       O  0.56092627  0.93333086  0.33604990    -1.12700
O3947       O  0.55018867  0.89315226  0.38050853    -0.75200
O3948       O  0.53486166  0.91630116  0.39607730    -0.78600
O3949       O  0.57258185  0.97531268  0.29409884    -0.79300
C3950       C  0.53609684  0.89659520  0.39778451     0.95900
O3951       O  0.57687307  0.96792587  0.38518402    -0.77300
O3952       O  0.56720575  0.89158128  0.31906715    -0.82500
C3953       C  0.61312552  0.94754085  0.29942704     0.98500
C3954       C  0.55266894  0.88566672  0.29558429     1.04500
O3955       O  0.59473008  0.94458151  0.28299870    -0.78100
C3956       C  0.59381751  0.96460684  0.39620670     1.02800
Fe3957     Fe  0.53835003  0.59103084  0.35659171     1.65800
Fe3958     Fe  0.57790141  0.65410386  0.35495868     1.73200
Fe3959     Fe  0.55720075  0.62127225  0.28780174     1.54400
O3960       O  0.56614783  0.59349363  0.28627754    -0.81900
O3961       O  0.56612623  0.67279147  0.32595982    -0.80200
O3962       O  0.54327242  0.56959562  0.32555060    -0.84400
O3963       O  0.50646959  0.58468724  0.33479980    -0.79200
O3964       O  0.59512639  0.64858949  0.28304142    -0.81000
O3965       O  0.54831581  0.64710175  0.38296520    -0.83700
C3966       C  0.50156405  0.58368246  0.30623675     0.97000
C3967       C  0.55539577  0.57273921  0.30116375     1.04500
O3968       O  0.55818872  0.62232788  0.33300575    -1.12700
O3969       O  0.59180720  0.63793890  0.38575710    -0.75200
O3970       O  0.56953762  0.59618989  0.37899334    -0.78600
O3971       O  0.51873844  0.59428300  0.28613268    -0.79300
C3972       C  0.58836632  0.61588276  0.38966937     0.95900
O3973       O  0.52916875  0.60607868  0.39227434    -0.77300
O3974       O  0.60956369  0.66598505  0.32875259    -0.82500
C3975       C  0.55382142  0.66770504  0.30080510     0.98500
C3976       C  0.61287818  0.66414766  0.30045423     1.04500
O3977       O  0.54804511  0.64842999  0.28512000    -0.78100
C3978       C  0.53168083  0.62733612  0.39662413     1.02800
C3979       C  0.53772808  0.50560094  0.29253997    -0.06000
C3980       C  0.56129371  0.50822654  0.29179669     0.00000
C3981       C  0.58288495  0.53238155  0.28713645    -0.08600
C3982       C  0.58009532  0.55361334  0.28646899    -0.06000
C3983       C  0.55648698  0.55085383  0.29083007    -0.00100
C3984       C  0.53476941  0.52624831  0.29195743    -0.08500
C3985       C  0.50794694  0.52007777  0.29451587     0.61900
H3986       H  0.52194756  0.98535253  0.30726615     0.12500
H3987       H  0.59649341  0.57246045  0.28549668     0.12600
C3988       C  0.60861136  0.53572314  0.28527328     0.62100
F3989       F  0.49349029  0.50351465  0.27153258    -0.23100
F3990       F  0.50580431  0.54088758  0.29159623    -0.20400
F3991       F  0.49837154  0.50869930  0.32276219    -0.20100
F3992       F  0.60898523  0.52147496  0.26149452    -0.20100
F3993       F  0.61417459  0.52786028  0.31263787    -0.20500
F3994       F  0.62705463  0.56067427  0.27983824    -0.23100
C3995       C  0.94328732  0.52855144  0.27419796    -0.06000
C3996       C  0.92904020  0.52059818  0.30116258     0.00000
C3997       C  0.93310887  0.53881803  0.32328029    -0.08600
C3998       C  0.95555664  0.56218505  0.32218658    -0.06000
C3999       C  0.97281519  0.56816458  0.29846629    -0.00100
C4000       C  0.96437222  0.55315147  0.27161207    -0.08500
C4001       C  0.48097595  0.56026906  0.24062852     0.61900
H4002       H  0.93893173  0.51518893  0.25596531     0.12500
H4003       H  0.96059328  0.57481227  0.34146017     0.12600
C4004       C  0.91517776  0.53382221  0.34931021     0.62100
F4005       F  0.46743417  0.54368816  0.21724157    -0.23100
F4006       F  0.50400672  0.56226165  0.24248755    -0.20400
F4007       F  0.48449659  0.58357063  0.23259833    -0.20100
F4008       F  0.92557692  0.53210330  0.37689434    -0.20100
F4009       F  0.89218190  0.51191032  0.34510127    -0.20500
F4010       F  0.91100701  0.55359103  0.35080365    -0.23100
C4011       C  0.95173668  0.93010009  0.27873592    -0.06000
C4012       C  0.93503146  0.92007375  0.30346464     0.00000
C4013       C  0.93738921  0.90402873  0.32503342    -0.08600
C4014       C  0.95935796  0.90316451  0.32516773    -0.06000
C4015       C  0.97827979  0.91644232  0.30320803    -0.00100
C4016       C  0.97299881  0.92766404  0.27751745    -0.08500
C4017       C  0.49071512  0.93863124  0.25183089     0.61900
H4018       H  0.94900310  0.94132378  0.26150292     0.12500
H4019       H  0.96215769  0.89277172  0.34354359     0.12600
C4020       C  0.91749449  0.88783327  0.34861777     0.62100
F4021       F  0.97869366  0.94393933  0.22574244    -0.23100
F4022       F  0.49519887  0.92065881  0.24063173    -0.20400
F4023       F  0.51317059  0.95990381  0.25974387    -0.20100
F4024       F  0.89556561  0.88790151  0.34424573    -0.20100
F4025       F  0.92665803  0.89630873  0.37787216    -0.20500
F4026       F  0.91158401  0.86311374  0.34636453    -0.23100
C4027       C  0.86235084  0.84557772  0.43661014    -0.06000
C4028       C  0.88276125  0.85540847  0.45727134     0.00000
C4029       C  0.89719057  0.88191331  0.46201258    -0.08600
C4030       C  0.89191841  0.89755381  0.44376644    -0.06000
C4031       C  0.87269131  0.88780573  0.42156982    -0.00100
C4032       C  0.85680972  0.86130458  0.41883546    -0.08500
C4033       C  0.83474278  0.84959926  0.39657595     0.61900
H4034       H  0.85107337  0.82531459  0.43391265     0.12500
H4035       H  0.90337835  0.91785505  0.44601954     0.12600
C4036       C  0.91867149  0.89403530  0.48518874     0.62100
F4037       F  0.82245103  0.82350387  0.39689465    -0.23100
F4038       F  0.84293254  0.85800002  0.36693432    -0.20400
F4039       F  0.81763182  0.85620684  0.40468187    -0.20100
F4040       F  0.93631162  0.88769100  0.47885350    -0.20100
F4041       F  0.91482340  0.88596528  0.00689533    -0.20500
F4042       F  0.93072372  0.92012268  0.48454448    -0.23100
C4043       C  0.50134436  0.85322091  0.40613903    -0.06000
C4044       C  0.51861786  0.87641489  0.41909096     0.00000
C4045       C  0.51482070  0.88151843  0.44938941    -0.08600
C4046       C  0.99214779  0.86867942  0.46526328    -0.06000
C4047       C  0.97367744  0.84558191  0.45264164    -0.00100
C4048       C  0.97953318  0.83720333  0.42537440    -0.08500
C4049       C  0.96274161  0.81092593  0.41236279     0.61900
H4050       H  0.50491747  0.84957026  0.38312973     0.12500
H4051       H  0.98879396  0.87466630  0.48694250     0.12600
C4052       C  0.53436094  0.90402243  0.46743805     0.62100
F4053       F  0.97477986  0.80572978  0.38987123    -0.23100
F4054       F  0.94147357  0.80886293  0.39914970    -0.20400
F4055       F  0.95607697  0.79293571  0.43550504    -0.20100
F4056       F  0.52595741  0.92036062  0.47198614    -0.20100
F4057       F  0.55729527  0.91685964  0.45282741    -0.20500
F4058       F  0.53799121  0.89582576  0.49579876    -0.23100
C4059       C  0.98467812  0.64194366  0.42773817    -0.06000
C4060       C  0.97718896  0.62558554  0.45358272     0.00000
C4061       C  0.99232324  0.61554535  0.46292413    -0.08600
C4062       C  0.50987939  0.61682936  0.44667489    -0.06000
C4063       C  0.51362268  0.62827674  0.41756523    -0.00100
C4064       C  0.00514789  0.64676768  0.40932018    -0.08500
C4065       C  0.01151291  0.66354556  0.38090000     0.61900
H4066       H  0.97367302  0.65021279  0.42126615     0.12500
H4067       H  0.52242966  0.61051171  0.45385494     0.12600
C4068       C  0.98686061  0.59895931  0.49151989     0.62100
F4069       F  0.99583911  0.67298098  0.37721043    -0.23100
F4070       F  0.49850882  0.63176390  0.35365276    -0.20400
F4071       F  0.52327642  0.67063522  0.37327077    -0.20100
F4072       F  0.96333258  0.57739745  0.48910956    -0.20100
F4073       F  0.98727340  0.61686200  0.01617553    -0.20500
F4074       F  0.50611567  0.59450582  0.50227742    -0.23100
C4075       C  0.88857062  0.51522154  0.46308746    -0.06000
C4076       C  0.87965431  0.53035267  0.45081989     0.00000
C4077       C  0.86371683  0.52168205  0.42428461    -0.08600
C4078       C  0.86245702  0.00192168  0.40565284    -0.06000
C4079       C  0.87199645  0.98761412  0.41789932    -0.00100
C4080       C  0.88355799  0.99334940  0.44720058    -0.08500
C4081       C  0.89201449  0.97680258  0.46254708     0.61900
H4082       H  0.89993475  0.52115671  0.48380449     0.12500
H4083       H  0.85321747  0.99665405  0.38339561     0.12600
C4084       C  0.85102952  0.53508305  0.41089160     0.62100
F4085       F  0.89656413  0.98167566  0.49365999    -0.23100
F4086       F  0.91381881  0.98119375  0.44903216    -0.20400
F4087       F  0.87362862  0.95159481  0.45949893    -0.20100
F4088       F  0.86863207  0.55769946  0.39722247    -0.20100
F4089       F  0.83876218  0.53942127  0.43387693    -0.20500
F4090       F  0.83335566  0.52082228  0.38866282    -0.23100
C4091       C  0.90168557  0.69033514  0.44486471    -0.06000
C4092       C  0.91571567  0.68719707  0.46818546     0.00000
C4093       C  0.92969521  0.70689172  0.48917465    -0.08600
C4094       C  0.92589361  0.72718545  0.48941464    -0.06000
C4095       C  0.90914847  0.72869000  0.46885142    -0.00100
C4096       C  0.89811036  0.71099403  0.44481367    -0.08500
C4097       C  0.88105902  0.71272843  0.42094723     0.61900
H4098       H  0.89127462  0.67510829  0.42882927     0.12500
H4099       H  0.93496536  0.74126734  0.50717145     0.12600
C4100       C  0.94724370  0.70624306  0.51321073     0.62100
F4101       F  0.87216554  0.69347714  0.39982571    -0.23100
F4102       F  0.89418218  0.73542739  0.40500934    -0.20400
F4103       F  0.85533338  0.70711441  0.94424035    -0.20100
F4104       F  0.95255084  0.68764254  0.50768554    -0.20100
F4105       F  0.93652605  0.70208789  0.54195787    -0.20500
F4106       F  0.96969204  0.72919314  0.51313671    -0.23100
C4107       C  0.63519663  0.59751240  0.41602800    -0.06000
C4108       C  0.64494837  0.61189463  0.44281165     0.00000
C4109       C  0.63547026  0.62712625  0.45205506    -0.08600
C4110       C  0.61639865  0.62709830  0.43452480    -0.06000
C4111       C  0.60703823  0.61308526  0.40767088    -0.00100
C4112       C  0.61662291  0.59804633  0.39791873    -0.08500
C4113       C  0.60825063  0.58347261  0.36798787     0.61900
H4114       H  0.64236204  0.58574928  0.40928271     0.12500
H4115       H  0.60896758  0.63863175  0.44125410     0.12600
C4116       C  0.64713302  0.64543513  0.47808721     0.62100
F4117       F  0.62241301  0.57292648  0.36125403    -0.23100
F4118       F  0.61081375  0.59952686  0.34386709    -0.20400
F4119       F  0.58350653  0.56404745  0.37004293    -0.20100
F4120       F  0.67205904  0.66175013  0.47114352    -0.20100
F4121       F  0.64468030  0.63269185  0.50549583    -0.20500
F4122       F  0.63618683  0.65969242  0.48183134    -0.23100
C4123       C  0.62621995  0.52524134  0.44384156    -0.06000
C4124       C  0.65090830  0.53041852  0.44402829     0.00000
C4125       C  0.65657568  0.51457008  0.42746695    -0.08600
C4126       C  0.63793738  0.99168374  0.41468588    -0.06000
C4127       C  0.61260286  0.98432777  0.41718978    -0.00100
C4128       C  0.60698116  0.50547505  0.42696932    -0.08500
C4129       C  0.57913230  0.99052397  0.44266033     0.61900
H4130       H  0.62227216  0.53785864  0.45591514     0.12500
H4131       H  0.64264709  0.98127050  0.39931802     0.12600
C4132       C  0.68285885  0.51901041  0.42699604     0.62100
F4133       F  0.57909218  0.51650511  0.44986862    -0.23100
F4134       F  0.56388715  0.96472147  0.44653363    -0.20400
F4135       F  0.57654965  0.51029696  0.39918791    -0.20100
F4136       F  0.69175403  0.52087278  0.45674186    -0.20100
F4137       F  0.69865751  0.54100985  0.41085249    -0.20500
F4138       F  0.68602698  0.00206413  0.41063253    -0.23100
C4139       C  0.77327294  0.70091497  0.49418018    -0.06000
C4140       C  0.76816497  0.68700588  0.46719659     0.00000
C4141       C  0.78309100  0.69864825  0.44094013    -0.08600
C4142       C  0.80612427  0.72148938  0.44489768    -0.06000
C4143       C  0.81316764  0.73310660  0.47377413    -0.00100
C4144       C  0.79510858  0.72452197  0.49736571    -0.08500
C4145       C  0.79905661  0.73878923  0.52688730     0.61900
H4146       H  0.76092914  0.69239456  0.51387222     0.12500
H4147       H  0.81952720  0.72918548  0.42625286     0.12600
C4148       C  0.77488888  0.68687971  0.40948050     0.62100
F4149       F  0.77721988  0.73799886  0.53435833    -0.23100
F4150       F  0.81779539  0.76392978  0.52397602    -0.20400
F4151       F  0.80597322  0.73012318  0.04406485    -0.20100
F4152       F  0.75236833  0.68483618  0.40167195    -0.20100
F4153       F  0.77166209  0.66315450  0.40954071    -0.20500
F4154       F  0.79225171  0.70140223  0.38711384    -0.23100
C4155       C  0.77737712  0.57513099  0.47948867    -0.06000
C4156       C  0.77689537  0.59472627  0.46334410     0.00000
C4157       C  0.79781165  0.61169986  0.44504131    -0.08600
C4158       C  0.81959930  0.61030906  0.44666398    -0.06000
C4159       C  0.82104659  0.59288085  0.46623693    -0.00100
C4160       C  0.79919357  0.57389550  0.48120825    -0.08500
C4161       C  0.79915313  0.55282688  0.49953993     0.61900
H4162       H  0.76109039  0.56187276  0.49275389     0.12500
H4163       H  0.83107499  0.61282677  0.93318593     0.12600
C4164       C  0.79373381  0.62226950  0.92312175     0.62100
F4165       F  0.77505076  0.53374259  0.50691997    -0.23100
F4166       F  0.81259075  0.56205023  0.52659079    -0.20400
F4167       F  0.80988558  0.54248608  0.48228887    -0.20100
F4168       F  0.79425432  0.64136013  0.93951958    -0.20100
F4169       F  0.77841895  0.62252407  0.40549723    -0.20500
F4170       F  0.81435683  0.63298201  0.90398797    -0.23100
C4171       C  0.94188453  0.78006205  0.10818901    -0.06000
C4172       C  0.95041392  0.79623147  0.08248721     0.00000
C4173       C  0.97618758  0.80945604  0.07494217    -0.08600
C4174       C  0.99235870  0.80499730  0.09298916    -0.06000
C4175       C  0.98354118  0.78711652  0.11728750    -0.00100
C4176       C  0.95777736  0.77485931  0.12567999    -0.08500
C4177       C  0.94631876  0.75539392  0.15167900     0.61900
H4178       H  0.92211913  0.77052845  0.11353858     0.12500
H4179       H  0.01204416  0.81477269  0.08723581     0.12600
C4180       C  0.98642534  0.82686301  0.04688549     0.62100
F4181       F  0.92093955  0.74605931  0.15496396    -0.23100
F4182       F  0.95784824  0.76624290  0.17929488    -0.20400
F4183       F  0.94903535  0.73513199  0.14575626    -0.20100
F4184       F  0.98358604  0.84732396  0.05034660    -0.20100
F4185       F  0.97372190  0.81384142  0.02075735    -0.20500
F4186       F  0.01167461  0.83606913  0.04256780    -0.23100
C4187       C  0.96446124  0.67980191  0.12765750    -0.06000
C4188       C  0.98863044  0.69568107  0.11572616     0.00000
C4189       C  0.99564691  0.68825940  0.08867703    -0.08600
C4190       C  0.97745865  0.66635310  0.07342239    -0.06000
C4191       C  0.95275957  0.65211018  0.08387339    -0.00100
C4192       C  0.94627512  0.65821959  0.11206249    -0.08500
C4193       C  0.92013016  0.64229729  0.12547695     0.61900
H4194       H  0.95925784  0.68528444  0.14837740     0.12500
H4195       H  0.98194630  0.66115274  0.05190825     0.12600
C4196       C  0.52186887  0.69774605  0.08626418     0.62100
F4197       F  0.91932526  0.64867319  0.15557534    -0.23100
F4198       F  0.91272317  0.61706018  0.12525920    -0.20400
F4199       F  0.90328081  0.64580616  0.10843713    -0.20100
F4200       F  0.53797290  0.70430324  0.11124015    -0.20100
F4201       F  0.52718568  0.71924147  0.06974738    -0.20500
F4202       F  0.52628025  0.68275955  0.06745926    -0.23100
C4203       C  0.53404590  0.83700235  0.23194160    -0.06000
C4204       C  0.53587880  0.81815982  0.24766305     0.00000
C4205       C  0.54161220  0.82066458  0.27950359    -0.08600
C4206       C  0.54648071  0.84272336  0.29426913    -0.06000
C4207       C  0.54559022  0.86223052  0.27842423    -0.00100
C4208       C  0.53931605  0.85934002  0.24638595    -0.08500
C4209       C  0.53973405  0.88009966  0.22659475     0.61900
H4210       H  0.52994198  0.83468825  0.20750518     0.12500
H4211       H  0.55121424  0.84474172  0.31857202     0.12600
C4212       C  0.54305832  0.80085424  0.29886944     0.62100
F4213       F  0.53644359  0.87425827  0.19564464    -0.23100
F4214       F  0.56261619  0.90234840  0.22983072    -0.20400
F4215       F  0.52059510  0.88365106  0.23515364    -0.20100
F4216       F  0.56773984  0.81003749  0.30730922    -0.20100
F4217       F  0.53392441  0.77833109  0.28368721    -0.20500
F4218       F  0.52898709  0.79577518  0.32520217    -0.23100
C4219       C  0.52420684  0.69782577  0.25381770    -0.06000
C4220       C  0.54329630  0.72327496  0.25578903     0.00000
C4221       C  0.56342416  0.73053744  0.27686006    -0.08600
C4222       C  0.56511626  0.71162095  0.29267736    -0.06000
C4223       C  0.54752208  0.68596819  0.28811723    -0.00100
C4224       C  0.52595718  0.67883693  0.26956222    -0.08500
C4225       C  0.00410611  0.65298000  0.26593987     0.61900
H4226       H  0.00909968  0.69413923  0.23660291     0.12500
H4227       H  0.58134082  0.71688924  0.30715442     0.12600
C4228       C  0.58430499  0.75780170  0.28133200     0.62100
F4229       F  0.98262525  0.65241564  0.25615049    -0.23100
F4230       F  0.49926828  0.63831153  0.29245958    -0.20400
F4231       F  0.00868498  0.63893229  0.24582428    -0.20100
F4232       F  0.59566815  0.76100093  0.30987683    -0.20100
F4233       F  0.60226995  0.76466302  0.25894394    -0.20500
F4234       F  0.57511351  0.77376697  0.27965341    -0.23100
C4235       C  0.70057780  0.51311667  0.09112762    -0.06000
C4236       C  0.71752854  0.52252114  0.11611033    -0.02700
C4237       C  0.72713903  0.54798574  0.12528547    -0.08600
C4238       C  0.72060220  0.56310012  0.10787843    -0.06000
C4239       C  0.70514750  0.55414249  0.08178435    -0.00100
C4240       C  0.69419306  0.52847482  0.07377256    -0.08500
C4241       C  0.67693309  0.51772343  0.04604977     0.61900
H4242       H  0.69278783  0.49364198  0.08469826     0.12500
H4243       H  0.72852480  0.58273590  0.11367637     0.12600
C4244       C  0.74769159  0.05922521  0.14791944     0.62100
F4245       F  0.66918733  0.49269325  0.04138671    -0.23100
F4246       F  0.68930697  0.53133764  0.01995488    -0.20400
F4247       F  0.65581942  0.51913997  0.05025772    -0.20100
F4248       F  0.75829404  0.08515198  0.14777864    -0.20100
F4249       F  0.76627637  0.55846539  0.14766116    -0.20500
F4250       F  0.73391079  0.54822367  0.17939664    -0.23100
C4251       C  0.85092468  0.56016992  0.11806682    -0.06000
C4252       C  0.85483779  0.55078463  0.09103192     0.00000
C4253       C  0.84003249  0.52473070  0.08494138    -0.08600
C4254       C  0.81922556  0.50967246  0.10373731    -0.06000
C4255       C  0.81302901  0.51980537  0.12840865    -0.00100
C4256       C  0.83067049  0.54486959  0.13766216    -0.08500
C4257       C  0.82813344  0.55592792  0.16721136     0.61900
H4258       H  0.86319526  0.58003936  0.12286930     0.12500
H4259       H  0.80676428  0.49001812  0.09807319     0.12600
C4260       C  0.84520141  0.51319484  0.05770727     0.62100
F4261       F  0.84917642  0.57932547  0.17310194    -0.23100
F4262       F  0.82520842  0.54012345  0.19180240    -0.20400
F4263       F  0.80880705  0.05612199  0.16903634    -0.20100
F4264       F  0.86893240  0.51683041  0.06064509    -0.20100
F4265       F  0.84366771  0.52440049  0.03060252    -0.20500
F4266       F  0.82824796  0.48748299  0.05586515    -0.23100
C4267       C  0.64356863  0.96969894  0.25681386    -0.06000
C4268       C  0.63741142  0.95521318  0.28421638     0.00000
C4269       C  0.65329386  0.94635425  0.29466366    -0.08600
C4270       C  0.67414110  0.95183025  0.27682807    -0.06000
C4271       C  0.67960160  0.96537501  0.24902349    -0.00100
C4272       C  0.66438986  0.97485497  0.23889413    -0.08500
C4273       C  0.66604873  0.48689314  0.20261518     0.61900
H4274       H  0.63147338  0.97643237  0.24904570     0.12500
H4275       H  0.68603246  0.94464541  0.28385753     0.12600
C4276       C  0.64781971  0.92994134  0.32345140     0.62100
F4277       F  0.64826605  0.49333277  0.19631277    -0.23100
F4278       F  0.66441286  0.47075278  0.17999201    -0.20400
F4279       F  0.68939501  0.50872114  0.20157501    -0.20100
F4280       F  0.62394065  0.90880899  0.32160607    -0.20100
F4281       F  0.64988307  0.94361059  0.34921992    -0.20500
F4282       F  0.66440910  0.92161742  0.32721174    -0.23100
C4283       C  0.78926209  0.94151168  0.29634350    -0.06000
C4284       C  0.81454327  0.95479558  0.28739710     0.00000
C4285       C  0.82261144  0.97451169  0.26497229    -0.08600
C4286       C  0.80448664  0.97799813  0.24982624    -0.06000
C4287       C  0.77890137  0.96293080  0.25679150    -0.00100
C4288       C  0.77131964  0.94545675  0.28175024    -0.08500
C4289       C  0.74446343  0.93103767  0.29323795     0.61900
H4290       H  0.78326900  0.92704888  0.31409292     0.12500
H4291       H  0.80739735  0.48776972  0.22723107     0.12600
C4292       C  0.85007724  0.99200558  0.25696310     0.62100
F4293       F  0.74282436  0.92055231  0.32216527    -0.23100
F4294       F  0.72932211  0.91165619  0.27348210    -0.20400
F4295       F  0.73553345  0.94720322  0.29526896    -0.20100
F4296       F  0.85840401  0.97933601  0.23980487    -0.20100
F4297       F  0.86387858  0.49765324  0.27416955    -0.20500
F4298       F  0.85078086  0.50531661  0.22945850    -0.23100
C4299       C  0.63141878  0.89535223  0.14796351    -0.06000
C4300       C  0.65113417  0.89698834  0.13108822     0.00000
C4301       C  0.64659586  0.87741234  0.11091879    -0.08600
C4302       C  0.62292126  0.85521280  0.11143132    -0.06000
C4303       C  0.60473991  0.85209033  0.13244712    -0.00100
C4304       C  0.60790786  0.87306613  0.14866889    -0.08500
C4305       C  0.58776017  0.87129607  0.16936983     0.61900
H4306       H  0.63519946  0.91069319  0.16299743     0.12500
H4307       H  0.61975991  0.83898708  0.09866219     0.12600
C4308       C  0.66740921  0.87862024  0.09200491     0.62100
F4309       F  0.59033892  0.89470927  0.17226287    -0.23100
F4310       F  0.58963393  0.86270110  0.19829261    -0.20400
F4311       F  0.56420248  0.85500090  0.15718167    -0.20100
F4312       F  0.68578906  0.87980919  0.11134910    -0.20100
F4313       F  0.67777317  0.89975863  0.07300964    -0.20500
F4314       F  0.65870033  0.85765091  0.07365465    -0.23100
C4315       C  0.82120267  0.77648285  0.12905420    -0.06000
C4316       C  0.81045145  0.79101936  0.12177223     0.00000
C4317       C  0.82219104  0.81043123  0.09892803    -0.08600
C4318       C  0.84217742  0.81239831  0.08181751    -0.06000
C4319       C  0.85110678  0.79605361  0.08710044    -0.00100
C4320       C  0.84144441  0.77876954  0.11237653    -0.08500
C4321       C  0.85236659  0.76272360  0.12199151     0.61900
H4322       H  0.81271377  0.76212689  0.14694542     0.12500
H4323       H  0.85004769  0.82591795  0.06294114     0.12600
C4324       C  0.81357885  0.82878832  0.09180608     0.62100
F4325       F  0.84411518  0.75180065  0.15080834    -0.23100
F4326       F  0.87825205  0.77756950  0.12324303    -0.20400
F4327       F  0.84530063  0.74350499  0.10129795    -0.20100
F4328       F  0.80842968  0.83666343  0.11874169    -0.20100
F4329       F  0.79233526  0.81727906  0.07341938    -0.20500
F4330       F  0.83188257  0.85008432  0.07640100    -0.23100
C4331       C  0.70930068  0.69643192  0.08465030    -0.06000
C4332       C  0.71854515  0.69858132  0.11481286     0.00000
C4333       C  0.72471470  0.68043405  0.12540393    -0.08600
C4334       C  0.71947762  0.66020681  0.10610961    -0.06000
C4335       C  0.71079415  0.65873368  0.07590735    -0.00100
C4336       C  0.70704616  0.67803706  0.06451844    -0.08500
C4337       C  0.70250012  0.68164336  0.03113523     0.61900
H4338       H  0.70544329  0.71048899  0.07558759     0.12500
H4339       H  0.72345227  0.64592996  0.11385374     0.12600
C4340       C  0.73815273  0.68273744  0.15575592     0.62100
F4341       F  0.68015086  0.68110246  0.02872912    -0.23100
F4342       F  0.70170164  0.66360618  0.01233553    -0.20400
F4343       F  0.72164116  0.70501545  0.02093122    -0.20100
F4344       F  0.72340637  0.68126039  0.17986869    -0.20100
F4345       F  0.76081006  0.70546968  0.15645354    -0.20500
F4346       F  0.74328053  0.66369722  0.16007385    -0.23100
C4347       C  0.77315936  0.82358206  0.28046285    -0.06000
C4348       C  0.78325579  0.81536659  0.25820329     0.00000
C4349       C  0.80964300  0.82738366  0.25568773    -0.08600
C4350       C  0.82483611  0.84907240  0.27327235    -0.06000
C4351       C  0.81449536  0.85888605  0.29304059    -0.00100
C4352       C  0.78817077  0.84533624  0.29772659    -0.08500
C4353       C  0.77551405  0.85448064  0.31900817     0.61900
H4354       H  0.75297786  0.81356294  0.28280535     0.12500
H4355       H  0.84499833  0.85927800  0.27066599     0.12600
C4356       C  0.82175827  0.81827149  0.23365909     0.62100
F4357       F  0.78162132  0.87860243  0.31035812    -0.23100
F4358       F  0.78313368  0.85445730  0.34904751    -0.20400
F4359       F  0.74963906  0.83916907  0.31810887    -0.20100
F4360       F  0.84767418  0.83277082  0.23511266    -0.20100
F4361       F  0.81446101  0.81946737  0.20377499    -0.20500
F4362       F  0.81461313  0.79364808  0.24109366    -0.23100
C4363       C  0.64564484  0.67233115  0.26217547    -0.06000
C4364       C  0.63809790  0.68140476  0.28653713     0.00000
C4365       C  0.65351897  0.70727599  0.29465425    -0.08600
C4366       C  0.67482301  0.72317482  0.27675628    -0.06000
C4367       C  0.68154733  0.71437901  0.25139830    -0.00100
C4368       C  0.66727492  0.68830169  0.24468043    -0.08500
C4369       C  0.67465371  0.67743382  0.21900597     0.61900
H4370       H  0.63409893  0.65253890  0.25655034     0.12500
H4371       H  0.68613569  0.74310670  0.28180061     0.12600
C4372       C  0.64710117  0.71869661  0.32093188     0.62100
F4373       F  0.65758079  0.65193346  0.21515526    -0.23100
F4374       F  0.69764534  0.68042932  0.22619938    -0.20400
F4375       F  0.67619854  0.68976330  0.19149883    -0.20100
F4376       F  0.64782739  0.70761104  0.34853526    -0.20100
F4377       F  0.62347222  0.71498633  0.31631376    -0.20500
F4378       F  0.66385760  0.74443149  0.32325903    -0.23100
C4379       C  0.76017600  0.87021572  0.16950802    -0.06000
C4380       C  0.75250161  0.85511666  0.14322957     0.00000
C4381       C  0.74859130  0.86511707  0.11545443    -0.08600
C4382       C  0.74558229  0.88617485  0.11727875    -0.06000
C4383       C  0.74886781  0.89846721  0.14534987    -0.00100
C4384       C  0.75945642  0.89232376  0.17062593    -0.08500
C4385       C  0.76841046  0.90773257  0.19979460     0.61900
H4386       H  0.76523241  0.86373698  0.19016930     0.12500
H4387       H  0.73952839  0.89232271  0.09725543     0.12600
C4388       C  0.74876545  0.85462421  0.08431132     0.62100
F4389       F  0.78685191  0.90517984  0.21439377    -0.23100
F4390       F  0.74859130  0.89948620  0.21979226    -0.20400
F4391       F  0.77857790  0.93311092  0.19305967    -0.20100
F4392       F  0.72892073  0.83022223  0.08117927    -0.20100
F4393       F  0.77089565  0.85489409  0.08127371    -0.20500
F4394       F  0.74734930  0.86900289  0.06050140    -0.23100
C4395       C  0.63489091  0.74227037  0.15290118    -0.06000
C4396       C  0.65468701  0.75991632  0.13428676     0.00000
C4397       C  0.65070955  0.77585241  0.11421777    -0.08600
C4398       C  0.62769076  0.77490365  0.11526496    -0.06000
C4399       C  0.60927876  0.75950142  0.13672923    -0.00100
C4400       C  0.61234603  0.74208513  0.15490502    -0.08500
C4401       C  0.59255814  0.72448523  0.17773769     0.61900
H4402       H  0.63821377  0.73029704  0.16820437     0.12500
H4403       H  0.62502303  0.78819569  0.10175578     0.12600
C4404       C  0.67179076  0.79615583  0.09504559     0.62100
F4405       F  0.59811349  0.70747386  0.19098474    -0.23100
F4406       F  0.56957829  0.71096265  0.16304723    -0.20400
F4407       F  0.59097261  0.73834329  0.20099048    -0.20100
F4408       F  0.68155139  0.78551425  0.07658271    -0.20100
F4409       F  0.69017265  0.81336900  0.11459427    -0.20500
F4410       F  0.66388758  0.80895224  0.07615108    -0.23100
Fe4411     Fe  0.71587563  0.78225060  0.69495673     1.65800
Fe4412     Fe  0.74834700  0.75246037  0.68863294     1.73200
Fe4413     Fe  0.73206486  0.77421865  0.62368634     1.54400
O4414       O  0.69459797  0.76500084  0.62157901    -0.81900
O4415       O  0.78069790  0.77325360  0.66290648    -0.80200
O4416       O  0.68352461  0.76555366  0.66982277    -0.84400
O4417       O  0.72989055  0.81537645  0.67047567    -0.79200
O4418       O  0.72039877  0.73659870  0.61628857    -0.81000
O4419       O  0.76585436  0.77918589  0.72311387    -0.83700
C4420       C  0.74112092  0.82535676  0.64544394     0.97000
C4421       C  0.67850349  0.76213290  0.64142288     1.04500
O4422       O  0.73209292  0.76953434  0.66894666    -1.12700
O4423       O  0.71740546  0.72868230  0.71647653    -0.75200
O4424       O  0.69940285  0.75097702  0.72315715    -0.78600
O4425       O  0.74472434  0.81284853  0.62557343    -0.79300
C4426       C  0.70063414  0.73152869  0.72850748     0.95900
O4427       O  0.74649896  0.80067559  0.72281542    -0.77300
O4428       O  0.73419224  0.72432135  0.65638330    -0.82500
C4429       C  0.78544543  0.78296354  0.63595933     0.98500
C4430       C  0.72438484  0.72052123  0.62979833     1.04500
O4431       O  0.76907993  0.78405297  0.61942313    -0.78100
C4432       C  0.76378377  0.79729160  0.73232020     1.02800
Fe4433     Fe  0.71282103  0.93074338  0.69459049     1.65800
Fe4434     Fe  0.74860075  0.49702643  0.69158968     1.73200
Fe4435     Fe  0.73198808  0.95854036  0.62350054     1.54400
O4436       O  0.74166857  0.93079360  0.62658822    -0.81900
O4437       O  0.73180306  0.50963236  0.66116423    -0.80200
O4438       O  0.72857692  0.91340043  0.67298816    -0.84400
O4439       O  0.68232657  0.91454967  0.66596942    -0.79200
O4440       O  0.76948762  0.98511143  0.62098245    -0.81000
O4441       O  0.71928805  0.48847527  0.72194756    -0.83700
C4442       C  0.67784216  0.91600214  0.63777940     0.97000
C4443       C  0.73920429  0.91513796  0.64773717     1.04500
O4444       O  0.73105838  0.96146469  0.66880047    -1.12700
O4445       O  0.76767484  0.48765113  0.72342214    -0.75200
O4446       O  0.74121179  0.94278918  0.72659918    -0.78600
O4447       O  0.69430221  0.93148885  0.61916529    -0.79300
C4448       C  0.76047800  0.96348744  0.73409994     0.95900
O4449       O  0.69450483  0.94407805  0.71912423    -0.77300
O4450       O  0.77996604  0.51102569  0.66339709    -0.82500
C4451       C  0.72426794  0.50497340  0.63349190     0.98500
C4452       C  0.78541530  0.50434351  0.63875488     1.04500
O4453       O  0.72298760  0.98618064  0.61514176    -0.78100
C4454       C  0.69828194  0.96557888  0.72548087     1.02800
Fe4455     Fe  0.57469823  0.78902222  0.69193515     1.65800
Fe4456     Fe  0.01279120  0.75451225  0.68941066     1.73200
Fe4457     Fe  0.54700518  0.77156741  0.62116454     1.54400
O4458       O  0.57546261  0.80916289  0.61806622    -0.81900
O4459       O  0.99983118  0.72262914  0.66336125    -0.80200
O4460       O  0.58894735  0.82126728  0.66594267    -0.84400
O4461       O  0.59326471  0.77578252  0.66719070    -0.79200
O4462       O  0.52156104  0.78313664  0.61478335    -0.81000
O4463       O  0.52233734  0.73806500  0.72163052    -0.83700
C4464       C  0.58985095  0.76401068  0.64234507     0.97000
C4465       C  0.58872113  0.82598451  0.63755170     1.04500
O4466       O  0.54429319  0.77118521  0.66643097    -1.12700
O4467       O  0.51882814  0.78409667  0.71181306    -0.75200
O4468       O  0.56006542  0.80437669  0.72011081    -0.78600
O4469       O  0.57261518  0.75983009  0.62312226    -0.79300
C4470       C  0.53874423  0.80162396  0.72410338     0.95900
O4471       O  0.56386644  0.75890143  0.72066076    -0.77300
O4472       O  0.99682827  0.76851798  0.65973236    -0.82500
C4473       C  0.00350242  0.71882624  0.63592681     0.98500
C4474       C  0.00156261  0.77934986  0.63360546     1.04500
O4475       O  0.51892370  0.73425167  0.61720799    -0.78100
C4476       C  0.54319050  0.74134524  0.73088265     1.02800
Fe4477     Fe  0.73986711  0.61935586  0.52204987     1.65800
Fe4478     Fe  0.67664584  0.58850568  0.51594583     1.73200
Fe4479     Fe  0.71307587  0.60618544  0.95222931     1.54400
O4480       O  0.73647517  0.64522949  0.95046594    -0.81900
O4481       O  0.66197259  0.56017202  0.98764407    -0.80200
O4482       O  0.75872565  0.65008637  0.49308100    -0.84400
O4483       O  0.75268224  0.59953437  0.50001604    -0.79200
O4484       O  0.68286797  0.61074764  0.94370798    -0.81000
O4485       O  0.68442312  0.56626276  0.54487160    -0.83700
C4486       C  0.75600630  0.59772177  0.97423196     0.97000
C4487       C  0.75415660  0.65963181  0.96861239     1.04500
O4488       O  0.70961227  0.60487808  0.49666885    -1.12700
O4489       O  0.68797525  0.61694936  0.54877733    -0.75200
O4490       O  0.72977546  0.64041561  0.54652006    -0.78600
O4491       O  0.74351571  0.60080943  0.95307757    -0.79300
C4492       C  0.70896673  0.63648554  0.55588620     0.95900
O4493       O  0.72518197  0.59079233  0.55430500    -0.77300
O4494       O  0.66484876  0.60898466  0.98805119    -0.82500
C4495       C  0.66854429  0.55325854  0.96398380     0.98500
C4496       C  0.66660234  0.61228196  0.95907805     1.04500
O4497       O  0.68928524  0.56744527  0.95045413    -0.78100
C4498       C  0.70431079  0.57063098  0.55869195     1.02800
Fe4499     Fe  0.88486870  0.62052783  0.52835278     1.65800
Fe4500     Fe  0.91625400  0.58949249  0.52197735     1.73200
Fe4501     Fe  0.89536724  0.60482940  0.95798147     1.54400
O4502       O  0.85770650  0.59386385  0.95884391    -0.81900
O4503       O  0.94443023  0.60309604  0.99155713    -0.80200
O4504       O  0.85195138  0.60357476  0.50391967    -0.84400
O4505       O  0.89881757  0.65295088  0.50232364    -0.79200
O4506       O  0.88421955  0.56760527  0.95285878    -0.81000
O4507       O  0.93485168  0.61704161  0.55513274    -0.83700
C4508       C  0.90481874  0.65650780  0.97695436     0.97000
C4509       C  0.84293891  0.59289214  0.97932222     1.04500
O4510       O  0.90008482  0.60655831  0.50236996    -1.12700
O4511       O  0.88650084  0.56766018  0.55122765    -0.75200
O4512       O  0.86870985  0.59021713  0.55828320    -0.78600
O4513       O  0.90600607  0.64241603  0.95726664    -0.79300
C4514       C  0.87038279  0.57106444  0.56388262     0.95900
O4515       O  0.91593058  0.63906095  0.55563140    -0.77300
O4516       O  0.89564796  0.55479120  0.99465803    -0.82500
C4517       C  0.94890508  0.61338779  0.96515560     0.98500
C4518       C  0.88516117  0.55060231  0.96828002     1.04500
O4519       O  0.93260815  0.61607195  0.95055481    -0.78100
C4520       C  0.93273109  0.63494988  0.56505659     1.02800
Fe4521     Fe  0.88099720  0.76240442  0.53101675     1.65800
Fe4522     Fe  0.91597418  0.82658291  0.52433982     1.73200
Fe4523     Fe  0.89547559  0.78933238  0.95625899     1.54400
O4524       O  0.90045455  0.75880456  0.95543434    -0.81900
O4525       O  0.89748929  0.83935310  0.99352572    -0.80200
O4526       O  0.89447827  0.74512432  0.50498422    -0.84400
O4527       O  0.84778974  0.74649061  0.50680900    -0.79200
O4528       O  0.93366048  0.81248508  0.95259017    -0.81000
O4529       O  0.88833624  0.81807887  0.55705661    -0.83700
C4530       C  0.84202550  0.74950356  0.97525077     0.97000
C4531       C  0.90106227  0.74420455  0.97573006     1.04500
O4532       O  0.89652701  0.79306003  0.50496187    -1.12700
O4533       O  0.93525919  0.81614495  0.55377411    -0.75200
O4534       O  0.91219822  0.77437442  0.55830823    -0.78600
O4535       O  0.85694814  0.76577887  0.95585763    -0.79300
C4536       C  0.93167662  0.79539878  0.56434446     0.95900
O4537       O  0.86594537  0.77614547  0.56051485    -0.77300
O4538       O  0.94504370  0.83928730  0.99131178    -0.82500
C4539       C  0.89119140  0.83652223  0.96545033     0.98500
C4540       C  0.95012332  0.83169142  0.96702476     1.04500
O4541       O  0.89053766  0.81945943  0.94920398    -0.78100
C4542       C  0.87045102  0.79759523  0.56847843     1.02800
Fe4543     Fe  0.90503741  0.95510350  0.86013591     1.65800
Fe4544     Fe  0.84124877  0.92075729  0.85630690     1.73200
Fe4545     Fe  0.87594739  0.93905414  0.78967266     1.54400
O4546       O  0.90190671  0.97751228  0.78782321    -0.81900
O4547       O  0.82717306  0.88974191  0.82854923    -0.80200
O4548       O  0.91902002  0.98763257  0.83468003    -0.84400
O4549       O  0.92256620  0.94151487  0.83439061    -0.79200
O4550       O  0.84851904  0.94813453  0.78447516    -0.81000
O4551       O  0.85199077  0.90190783  0.88692731    -0.83700
C4552       C  0.91981655  0.93167477  0.80831866     0.97000
C4553       C  0.91604148  0.99361074  0.80761973     1.04500
O4554       O  0.87401144  0.93823140  0.83531412    -1.12700
O4555       O  0.85075796  0.94976505  0.88670172    -0.75200
O4556       O  0.89228127  0.97095465  0.89002302    -0.78600
O4557       O  0.90355433  0.92972775  0.78883462    -0.79300
C4558       C  0.87127464  0.96744784  0.89757400     0.95900
O4559       O  0.89371950  0.92428763  0.88803838    -0.77300
O4560       O  0.82661059  0.93718844  0.82781588    -0.82500
C4561       C  0.83160301  0.88479203  0.80213489     0.98500
C4562       C  0.83112405  0.94664609  0.80077339     1.04500
O4563       O  0.84969649  0.90094479  0.78568494    -0.78100
C4564       C  0.87292129  0.90526251  0.89601244     1.02800
Fe4565     Fe  0.54299851  0.94480020  0.85870806     1.65800
Fe4566     Fe  0.57816117  0.91948139  0.84846691     1.73200
Fe4567     Fe  0.55677796  0.93754621  0.78665828     1.54400
O4568       O  0.52008388  0.93084571  0.78877109    -0.81900
O4569       O  0.60929459  0.94366109  0.82266028    -0.80200
O4570       O  0.50909875  0.92173481  0.83770891    -0.84400
O4571       O  0.54953392  0.97395605  0.83010498    -0.79200
O4572       O  0.54166154  0.89975725  0.78117607    -0.81000
O4573       O  0.59406194  0.94599847  0.88443890    -0.83700
C4574       C  0.56167843  0.98486140  0.80589266     0.97000
C4575       C  0.50355951  0.92301086  0.80975505     1.04500
O4576       O  0.55948669  0.93396183  0.83128074    -1.12700
O4577       O  0.54829741  0.89344291  0.87577793    -0.75200
O4578       O  0.53370879  0.91706411  0.89176261    -0.78600
O4579       O  0.57146950  0.97580563  0.78930677    -0.79300
C4580       C  0.53451619  0.89711997  0.89338796     0.95900
O4581       O  0.57589748  0.96868854  0.88063402    -0.77300
O4582       O  0.56481979  0.89223030  0.81395379    -0.82500
C4583       C  0.61134665  0.94769429  0.79386267     0.98500
C4584       C  0.54979760  0.88599738  0.79090103     1.04500
O4585       O  0.59278465  0.94447434  0.77749690    -0.78100
C4586       C  0.59252109  0.96499287  0.89192065     1.02800
Fe4587     Fe  0.53907948  0.59184990  0.85790438     1.65800
Fe4588     Fe  0.57803516  0.65470256  0.85293135     1.73200
Fe4589     Fe  0.55600052  0.61988675  0.78748377     1.54400
O4590       O  0.56495718  0.59230804  0.78712704    -0.81900
O4591       O  0.56603104  0.67243543  0.82278321    -0.80200
O4592       O  0.54320421  0.56938423  0.82764468    -0.84400
O4593       O  0.50665156  0.58457688  0.83696737    -0.79200
O4594       O  0.59395748  0.64691874  0.78120119    -0.81000
O4595       O  0.54871249  0.64868667  0.88050042    -0.83700
C4596       C  0.50087560  0.58329753  0.80865563     0.97000
C4597       C  0.55491927  0.57212448  0.80301519     1.04500
O4598       O  0.55803563  0.62229217  0.83261210    -1.12700
O4599       O  0.59242900  0.63995137  0.88515431    -0.75200
O4600       O  0.57103982  0.59809808  0.87952531    -0.78600
O4601       O  0.51740604  0.59311458  0.78767267    -0.79300
C4602       C  0.58971570  0.61826399  0.88959234     0.95900
O4603       O  0.53074900  0.60824332  0.89293177    -0.77300
O4604       O  0.60910591  0.66502432  0.82648244    -0.82500
C4605       C  0.55322089  0.66673449  0.79800470     0.98500
C4606       C  0.61199459  0.66259019  0.79823067     1.04500
O4607       O  0.54683111  0.64687492  0.78337463    -0.78100
C4608       C  0.53261703  0.62941332  0.89537209     1.02800
C4609       C  0.53804411  0.50544496  0.79504226    -0.06000
C4610       C  0.56175988  0.50840898  0.79639027     0.00000
C4611       C  0.58346422  0.53263996  0.79343907    -0.08600
C4612       C  0.58047190  0.55364359  0.79153311    -0.06000
C4613       C  0.55656227  0.55054805  0.79346121    -0.00100
C4614       C  0.53490679  0.52595609  0.79344591    -0.08500
C4615       C  0.50800961  0.51984143  0.79366074     0.61900
H4616       H  0.52060541  0.98441008  0.80074342     0.12500
H4617       H  0.59680308  0.57259885  0.79162061     0.12600
C4618       C  0.60934401  0.53619940  0.79497848     0.62100
F4619       F  0.49481572  0.50374698  0.76973421    -0.23100
F4620       F  0.50612284  0.54082426  0.79018147    -0.20400
F4621       F  0.49689072  0.50791646  0.82114385    -0.20100
F4622       F  0.61192231  0.52308251  0.77145874    -0.20100
F4623       F  0.61260834  0.52717397  0.82293090    -0.20500
F4624       F  0.62802714  0.56136188  0.79200989    -0.23100
C4625       C  0.94357839  0.52506064  0.77925650    -0.06000
C4626       C  0.92951483  0.51716300  0.80637419     0.00000
C4627       C  0.93282788  0.53556452  0.82779663    -0.08600
C4628       C  0.95481302  0.55934283  0.82617186    -0.06000
C4629       C  0.97195000  0.56556492  0.80217285    -0.00100
C4630       C  0.96371844  0.55005926  0.77584708    -0.08500
C4631       C  0.47712574  0.56148018  0.74337369     0.61900
H4632       H  0.93948278  0.51159901  0.76123763     0.12500
H4633       H  0.95948336  0.57229734  0.84499828     0.12600
C4634       C  0.91412984  0.53077922  0.85280603     0.62100
F4635       F  0.46184851  0.54615702  0.71991796    -0.23100
F4636       F  0.49916635  0.56143700  0.74286850    -0.20400
F4637       F  0.48226439  0.58567418  0.73732031    -0.20100
F4638       F  0.92415186  0.53051549  0.88131017    -0.20100
F4639       F  0.89160973  0.50827663  0.84893096    -0.20500
F4640       F  0.90901095  0.54995580  0.85199051    -0.23100
C4641       C  0.95274902  0.93180696  0.77663047    -0.06000
C4642       C  0.93628075  0.92179075  0.80161121     0.00000
C4643       C  0.93892443  0.90583249  0.82305066    -0.08600
C4644       C  0.96076349  0.90480704  0.82254382    -0.06000
C4645       C  0.97946050  0.91803444  0.80033175    -0.00100
C4646       C  0.97396169  0.92929647  0.77489653    -0.08500
C4647       C  0.48621960  0.93683942  0.74841353     0.61900
H4648       H  0.94977454  0.94291790  0.75949643     0.12500
H4649       H  0.96370765  0.89439366  0.84075466     0.12600
C4650       C  0.91959801  0.89000319  0.84734512     0.62100
F4651       F  0.97905738  0.94557517  0.72319164    -0.23100
F4652       F  0.49079185  0.91897935  0.73706898    -0.20400
F4653       F  0.50869811  0.95861673  0.75481854    -0.20100
F4654       F  0.89745565  0.88963911  0.84322497    -0.20100
F4655       F  0.92926190  0.89926777  0.87620492    -0.20500
F4656       F  0.91397313  0.86533011  0.84591194    -0.23100
C4657       C  0.86496028  0.84434445  0.92929968    -0.06000
C4658       C  0.88485338  0.85413162  0.95063207     0.00000
C4659       C  0.89942647  0.88053701  0.95543502    -0.08600
C4660       C  0.89335208  0.89615864  0.93862942    -0.06000
C4661       C  0.87404156  0.88655187  0.91651230    -0.00100
C4662       C  0.85930876  0.86012354  0.91184906    -0.08500
C4663       C  0.83848331  0.84858231  0.88783751     0.61900
H4664       H  0.85417031  0.82413515  0.92597073     0.12500
H4665       H  0.90436020  0.91637793  0.94184908     0.12600
C4666       C  0.92225844  0.89253681  0.97666514     0.62100
F4667       F  0.82788914  0.82272873  0.88587075    -0.23100
F4668       F  0.84782662  0.85903852  0.85918289    -0.20400
F4669       F  0.81971878  0.85298505  0.89543323    -0.20100
F4670       F  0.93838631  0.88450860  0.96906096    -0.20100
F4671       F  0.90950605  0.88591885  0.51458867    -0.20500
F4672       F  0.93551975  0.91863248  0.97440800    -0.23100
C4673       C  0.50034451  0.85330266  0.90468476    -0.06000
C4674       C  0.51746099  0.87740953  0.91574118     0.00000
C4675       C  0.51427312  0.88356213  0.94581788    -0.08600
C4676       C  0.99142619  0.87178678  0.96389337    -0.06000
C4677       C  0.97590849  0.84681052  0.95399357    -0.00100
C4678       C  0.98502075  0.83782508  0.93069662    -0.08500
C4679       C  0.97253094  0.81005670  0.92295867     0.61900
H4680       H  0.50333493  0.84849280  0.88200778     0.12500
H4681       H  0.98588129  0.87848326  0.98321602     0.12600
C4682       C  0.53406798  0.90671501  0.96262088     0.62100
F4683       F  0.98856482  0.80533755  0.90686475    -0.23100
F4684       F  0.95144246  0.80272731  0.90496548    -0.20400
F4685       F  0.96593021  0.79555410  0.94968650    -0.20100
F4686       F  0.52545564  0.92293046  0.96671347    -0.20100
F4687       F  0.55664302  0.91926134  0.94719655    -0.20500
F4688       F  0.53849944  0.89949753  0.99118855    -0.23100
C4689       C  0.97885874  0.63480633  0.92169972    -0.06000
C4690       C  0.97363236  0.62168496  0.95014291     0.00000
C4691       C  0.99131882  0.61550452  0.96201286    -0.08600
C4692       C  0.51214682  0.62221616  0.94588940    -0.06000
C4693       C  0.51445785  0.63084733  0.91542944    -0.00100
C4694       C  0.99964106  0.64006702  0.90363294    -0.08500
C4695       C  0.00339745  0.65287590  0.87236285     0.61900
H4696       H  0.96593591  0.64016166  0.91297817     0.12500
H4697       H  0.52576464  0.61771763  0.95444021     0.12600
C4698       C  0.98851801  0.60254413  0.99310740     0.62100
F4699       F  0.98505473  0.65847366  0.86575923    -0.23100
F4700       F  0.49818743  0.62975667  0.85035811    -0.20400
F4701       F  0.52157946  0.66972349  0.86724283    -0.20100
F4702       F  0.96714190  0.57870016  0.99314768    -0.20100
F4703       F  0.98809485  0.61223217  0.51733251    -0.20500
F4704       F  0.51378600  0.61049480  0.00598074    -0.23100
C4705       C  0.88319544  0.50963555  0.96650106    -0.06000
C4706       C  0.87508463  0.52534985  0.95409502     0.00000
C4707       C  0.85929082  0.51721731  0.92740379    -0.08600
C4708       C  0.86057036  0.99965071  0.90651604    -0.06000
C4709       C  0.87117091  0.98608552  0.91806321    -0.00100
C4710       C  0.88392763  0.99271089  0.94666635    -0.08500
C4711       C  0.89517744  0.97807344  0.96046599     0.61900
H4712       H  0.89434294  0.51517638  0.98741179     0.12500
H4713       H  0.85091133  0.99404910  0.88455087     0.12600
C4714       C  0.84707870  0.53114485  0.91414862     0.62100
F4715       F  0.90275974  0.98469041  0.99067527    -0.23100
F4716       F  0.91589318  0.98299087  0.94372076    -0.20400
F4717       F  0.87764898  0.95245727  0.96001982    -0.20100
F4718       F  0.86486449  0.55327738  0.89972357    -0.20100
F4719       F  0.83570504  0.53646348  0.93733776    -0.20500
F4720       F  0.82876406  0.51685421  0.89255259    -0.23100
C4721       C  0.89476842  0.68409213  0.94735880    -0.06000
C4722       C  0.91115357  0.68210543  0.96804866     0.00000
C4723       C  0.92829406  0.70323666  0.98557482    -0.08600
C4724       C  0.92592401  0.72447080  0.98520822    -0.06000
C4725       C  0.90742581  0.72530500  0.96741680    -0.00100
C4726       C  0.89248555  0.70549910  0.94679374    -0.08500
C4727       C  0.87280361  0.70598798  0.92634971     0.61900
H4728       H  0.88190791  0.66768465  0.93400153     0.12500
H4729       H  0.93774517  0.74003557  0.00036669     0.12600
C4730       C  0.94870132  0.70392500  0.00573686     0.62100
F4731       F  0.86024400  0.68471311  0.90831669    -0.23100
F4732       F  0.88414867  0.72686222  0.90693826    -0.20400
F4733       F  0.86069124  0.71122264  0.43520140    -0.20100
F4734       F  0.95056254  0.68283319  0.00258220    -0.20100
F4735       F  0.94399435  0.70577710  0.03622854    -0.20500
F4736       F  0.97155718  0.72485994  0.99772802    -0.23100
C4737       C  0.63872798  0.60235169  0.91381623    -0.06000
C4738       C  0.64756028  0.61543343  0.94162976     0.00000
C4739       C  0.63754641  0.63006999  0.95158117    -0.08600
C4740       C  0.61819089  0.62986362  0.93435376    -0.06000
C4741       C  0.60924410  0.61646609  0.90701190    -0.00100
C4742       C  0.62007760  0.60296246  0.89596806    -0.08500
C4743       C  0.61269638  0.58993191  0.86502301     0.61900
H4744       H  0.64640945  0.59126635  0.90620067     0.12500
H4745       H  0.61014101  0.64066657  0.94176428     0.12600
C4746       C  0.64893756  0.64806491  0.97798816     0.62100
F4747       F  0.62857679  0.58181295  0.85654114    -0.23100
F4748       F  0.61379850  0.60650451  0.84241183    -0.20400
F4749       F  0.58864480  0.56908923  0.86640749    -0.20100
F4750       F  0.67375667  0.66498785  0.97107819    -0.20100
F4751       F  0.64688691  0.63511720  0.00507962    -0.20500
F4752       F  0.63744397  0.66173170  0.98238312    -0.23100
C4753       C  0.62466112  0.52210022  0.95157075    -0.06000
C4754       C  0.64977179  0.52873310  0.95003010     0.00000
C4755       C  0.65580932  0.51325491  0.93322158    -0.08600
C4756       C  0.63598007  0.99055528  0.91355896    -0.06000
C4757       C  0.61082738  0.98410765  0.91403351    -0.00100
C4758       C  0.60556310  0.50204622  0.93484060    -0.08500
C4759       C  0.57711095  0.99085962  0.93776699     0.61900
H4760       H  0.62021930  0.53401616  0.96441759     0.12500
H4761       H  0.64091449  0.98005970  0.89866436     0.12600
C4762       C  0.68239735  0.51863906  0.93156332     0.62100
F4763       F  0.57662177  0.50972688  0.96124343    -0.23100
F4764       F  0.56117356  0.96506362  0.94005731    -0.20400
F4765       F  0.57396501  0.50665514  0.90997658    -0.20100
F4766       F  0.69367303  0.52464355  0.96026960    -0.20100
F4767       F  0.69615818  0.53854730  0.91136845    -0.20500
F4768       F  0.68307088  0.99804017  0.91466290    -0.23100
C4769       C  0.77494367  0.70235288  0.98821148    -0.06000
C4770       C  0.77013589  0.68702526  0.96264340     0.00000
C4771       C  0.78530082  0.69747714  0.93622992    -0.08600
C4772       C  0.80839018  0.72043642  0.93944098    -0.06000
C4773       C  0.81522859  0.73328093  0.96750777    -0.00100
C4774       C  0.79694562  0.72587933  0.99060720    -0.08500
C4775       C  0.80095117  0.74113826  0.01923502     0.61900
H4776       H  0.76228065  0.69492338  0.00777455     0.12500
H4777       H  0.82206741  0.72728323  0.92097355     0.12600
C4778       C  0.77721616  0.68461651  0.90536494     0.62100
F4779       F  0.77948409  0.74152283  0.02524071    -0.23100
F4780       F  0.82043859  0.76590728  0.01581646    -0.20400
F4781       F  0.80516560  0.72768879  0.55057225    -0.20100
F4782       F  0.75460184  0.68206644  0.89683114    -0.20100
F4783       F  0.77426452  0.66102465  0.90693557    -0.20500
F4784       F  0.79454457  0.69853165  0.88268336    -0.23100
C4785       C  0.77503293  0.57232413  0.98716191    -0.06000
C4786       C  0.77421041  0.58997620  0.96713230     0.00000
C4787       C  0.79375120  0.60331441  0.94553217    -0.08600
C4788       C  0.81494243  0.60094041  0.94747279    -0.06000
C4789       C  0.81725789  0.58625112  0.97066569    -0.00100
C4790       C  0.79629704  0.57011050  0.98917073    -0.08500
C4791       C  0.79673793  0.55138304  0.01177881     0.61900
H4792       H  0.75970872  0.56169492  0.00304654     0.12500
H4793       H  0.83649878  0.62449151  0.43512852     0.12600
C4794       C  0.79814488  0.63269850  0.42630989     0.62100
F4795       F  0.77276192  0.53319931  0.02096123    -0.23100
F4796       F  0.81054903  0.56372624  0.03763620    -0.20400
F4797       F  0.80732480  0.53920910  0.99812587    -0.20100
F4798       F  0.79607508  0.64880282  0.44582921    -0.20100
F4799       F  0.77246770  0.61055571  0.90477062    -0.20500
F4800       F  0.82010154  0.64670766  0.40982228    -0.23100
C4801       C  0.94246211  0.77986710  0.61086417    -0.06000
C4802       C  0.95084188  0.79521672  0.58441765     0.00000
C4803       C  0.97643041  0.80757929  0.57621263    -0.08600
C4804       C  0.99258835  0.80316641  0.59439078    -0.06000
C4805       C  0.98394496  0.78630646  0.61974017    -0.00100
C4806       C  0.95842721  0.77502957  0.62885725    -0.08500
C4807       C  0.94738605  0.75718481  0.65646578     0.61900
H4808       H  0.92282665  0.77092479  0.61667496     0.12500
H4809       H  0.01211064  0.81222695  0.58805898     0.12600
C4810       C  0.98640719  0.82404460  0.54738038     0.62100
F4811       F  0.92225274  0.74868523  0.66045148    -0.23100
F4812       F  0.95987832  0.76952599  0.68304006    -0.20400
F4813       F  0.94933533  0.73621312  0.65249129    -0.20100
F4814       F  0.98427882  0.84500397  0.55001122    -0.20100
F4815       F  0.97295051  0.81039508  0.52193379    -0.20500
F4816       F  0.01142554  0.83248536  0.54249527    -0.23100
C4817       C  0.96119117  0.68183990  0.62957738    -0.06000
C4818       C  0.98669313  0.69377739  0.62245820     0.00000
C4819       C  0.99469365  0.68306903  0.60024301    -0.08600
C4820       C  0.97641648  0.66239856  0.58327417    -0.06000
C4821       C  0.95077317  0.65242917  0.58801298    -0.00100
C4822       C  0.94298434  0.66121584  0.61278217    -0.08500
C4823       C  0.91556626  0.64985896  0.62081413     0.61900
H4824       H  0.95532855  0.68995416  0.64692281     0.12500
H4825       H  0.98207165  0.65508623  0.56472010     0.12600
C4826       C  0.52035424  0.69197206  0.58902153     0.62100
F4827       F  0.91288235  0.65582099  0.65045052    -0.23100
F4828       F  0.90292146  0.62384680  0.61906324    -0.20400
F4829       F  0.90471788  0.65907505  0.60073575    -0.20100
F4830       F  0.53483022  0.69634758  0.61516198    -0.20100
F4831       F  0.52905956  0.71433170  0.57272374    -0.20500
F4832       F  0.52322720  0.67564617  0.57075701    -0.23100
C4833       C  0.52971267  0.83559799  0.72896934    -0.06000
C4834       C  0.53752256  0.82036373  0.74306930     0.00000
C4835       C  0.54592635  0.82467130  0.77391243    -0.08600
C4836       C  0.54798956  0.84533532  0.78912001    -0.06000
C4837       C  0.54240706  0.86220201  0.77438285    -0.00100
C4838       C  0.53206933  0.85669273  0.74387676    -0.08500
C4839       C  0.52423575  0.87300370  0.72628600     0.61900
H4840       H  0.52298969  0.83154595  0.70543770     0.12500
H4841       H  0.55525126  0.84907776  0.81242677     0.12600
C4842       C  0.55401316  0.80833516  0.79030609     0.62100
F4843       F  0.51468667  0.86363850  0.69736184    -0.23100
F4844       F  0.54468398  0.89718127  0.72226784    -0.20400
F4845       F  0.50568623  0.87377771  0.74222891    -0.20100
F4846       F  0.57714087  0.81445022  0.77926176    -0.20100
F4847       F  0.53661108  0.78310812  0.78523854    -0.20500
F4848       F  0.55613024  0.81202430  0.82177095    -0.23100
C4849       C  0.52479308  0.69746448  0.74944045    -0.06000
C4850       C  0.54353552  0.72296823  0.75272629     0.00000
C4851       C  0.56330084  0.72972880  0.77429432    -0.08600
C4852       C  0.56438435  0.71053698  0.79019185    -0.06000
C4853       C  0.54719077  0.68500552  0.78455109    -0.00100
C4854       C  0.52634175  0.67816173  0.76473557    -0.08500
C4855       C  0.00800979  0.65061295  0.75585439     0.61900
H4856       H  0.01265561  0.69292276  0.73089584     0.12500
H4857       H  0.57989420  0.71550961  0.80579418     0.12600
C4858       C  0.58360756  0.75689343  0.78049837     0.62100
F4859       F  0.98783102  0.64946580  0.74056532    -0.23100
F4860       F  0.49841453  0.63730921  0.78601870    -0.20400
F4861       F  0.01696084  0.63904429  0.73766136    -0.20100
F4862       F  0.59728271  0.75900132  0.80686823    -0.20100
F4863       F  0.60014411  0.76669119  0.75618708    -0.20500
F4864       F  0.57276087  0.77102973  0.78460883    -0.23100
C4865       C  0.69949447  0.51112849  0.59250796    -0.06000
C4866       C  0.71636273  0.52131388  0.61748091    -0.02700
C4867       C  0.72652660  0.54717299  0.62488198    -0.08600
C4868       C  0.71970010  0.56163125  0.60665133    -0.06000
C4869       C  0.70432186  0.55191189  0.58054504    -0.00100
C4870       C  0.69358496  0.52606686  0.57353125    -0.08500
C4871       C  0.67725552  0.51465303  0.54517600     0.61900
H4872       H  0.69162305  0.49142602  0.58721742     0.12500
H4873       H  0.72755726  0.58139570  0.61163573     0.12600
C4874       C  0.74837662  0.06040652  0.64784304     0.62100
F4875       F  0.67015694  0.48967256  0.54153201    -0.23100
F4876       F  0.69029865  0.52798053  0.51923155    -0.20400
F4877       F  0.65573651  0.51560783  0.54754884    -0.20100
F4878       F  0.75792822  0.08613952  0.64905805    -0.20100
F4879       F  0.76607654  0.55738426  0.64568069    -0.20500
F4880       F  0.73548339  0.55057626  0.67865789    -0.23100
C4881       C  0.84945109  0.56030777  0.61430410    -0.06000
C4882       C  0.85211594  0.55200185  0.58567990     0.00000
C4883       C  0.83524497  0.52683198  0.57700347    -0.08600
C4884       C  0.81473378  0.51148817  0.59619347    -0.06000
C4885       C  0.81054887  0.52038599  0.62381303    -0.00100
C4886       C  0.82934941  0.54479114  0.63406837    -0.08500
C4887       C  0.82854838  0.55489022  0.66529154     0.61900
H4888       H  0.86293302  0.57954452  0.62061576     0.12500
H4889       H  0.80122689  0.49253890  0.58887746     0.12600
C4890       C  0.83822097  0.51661445  0.54692682     0.62100
F4891       F  0.85039454  0.57753732  0.67156029    -0.23100
F4892       F  0.82575203  0.53777035  0.68813747    -0.20400
F4893       F  0.80885265  0.05731178  0.66528464    -0.20100
F4894       F  0.86046909  0.51685199  0.54751384    -0.20100
F4895       F  0.83849615  0.53136458  0.52248272    -0.20500
F4896       F  0.81889079  0.49205275  0.54195672    -0.23100
C4897       C  0.64055276  0.96697276  0.74902169    -0.06000
C4898       C  0.63588425  0.95555480  0.77855841     0.00000
C4899       C  0.65378618  0.95007701  0.79142354    -0.08600
C4900       C  0.67482384  0.95544810  0.77388166    -0.06000
C4901       C  0.67882845  0.96594442  0.74423046    -0.00100
C4902       C  0.66166427  0.97213141  0.73157116    -0.08500
C4903       C  0.67033427  0.49208518  0.70851447     0.61900
H4904       H  0.62711556  0.97124882  0.73923464     0.12500
H4905       H  0.68809839  0.95058053  0.78276365     0.12600
C4906       C  0.65055290  0.93752123  0.82286885     0.62100
F4907       F  0.65313658  0.49924168  0.70192343    -0.23100
F4908       F  0.66966763  0.47720381  0.68483617    -0.20400
F4909       F  0.69385414  0.51368681  0.70991522    -0.20100
F4910       F  0.62802396  0.91466126  0.82383587    -0.20100
F4911       F  0.65119425  0.95317290  0.84552024    -0.20500
F4912       F  0.66941230  0.93267980  0.82950689    -0.23100
C4913       C  0.78890965  0.94101997  0.79547985    -0.06000
C4914       C  0.81430335  0.95473966  0.78708856     0.00000
C4915       C  0.82245617  0.97494505  0.76541455    -0.08600
C4916       C  0.80432311  0.97814342  0.74976536    -0.06000
C4917       C  0.77861263  0.96257680  0.75594311    -0.00100
C4918       C  0.77094994  0.94491153  0.78074734    -0.08500
C4919       C  0.74414055  0.93062650  0.79234809     0.61900
H4920       H  0.78291678  0.92641194  0.81303081     0.12500
H4921       H  0.81095672  0.48999608  0.72758612     0.12600
C4922       C  0.85006454  0.99362010  0.75938364     0.62100
F4923       F  0.74241559  0.91956441  0.82092006    -0.23100
F4924       F  0.72869510  0.91170414  0.77224176    -0.20400
F4925       F  0.73566203  0.94709790  0.79527126    -0.20100
F4926       F  0.86021923  0.98241444  0.74271955    -0.20100
F4927       F  0.86679438  0.49707845  0.77357865    -0.20500
F4928       F  0.85415278  0.50529191  0.72885915    -0.23100
C4929       C  0.63252147  0.89501158  0.64450618    -0.06000
C4930       C  0.65237161  0.89763735  0.62696525     0.00000
C4931       C  0.64790787  0.87878696  0.60558052    -0.08600
C4932       C  0.62448908  0.85606179  0.60604154    -0.06000
C4933       C  0.60609516  0.85209703  0.62728144    -0.00100
C4934       C  0.60912516  0.87258352  0.64453878    -0.08500
C4935       C  0.58884166  0.87094381  0.66490039     0.61900
H4936       H  0.63591283  0.90986958  0.66018614     0.12500
H4937       H  0.62156008  0.84026342  0.59252126     0.12600
C4938       C  0.66839024  0.88173558  0.58446915     0.62100
F4939       F  0.58642420  0.89157640  0.65905749    -0.23100
F4940       F  0.59545949  0.87114520  0.69545704    -0.20400
F4941       F  0.56571906  0.84942413  0.65965881    -0.20100
F4942       F  0.68839853  0.88429207  0.60164475    -0.20100
F4943       F  0.67644521  0.90292232  0.56592830    -0.20500
F4944       F  0.66000341  0.86111461  0.56558843    -0.23100
C4945       C  0.82246078  0.77843920  0.63184725    -0.06000
C4946       C  0.81049031  0.79139619  0.62240825     0.00000
C4947       C  0.82176960  0.81025735  0.59891230    -0.08600
C4948       C  0.84267937  0.81308080  0.58321748    -0.06000
C4949       C  0.85281968  0.79807352  0.59055284    -0.00100
C4950       C  0.84358033  0.78157817  0.61654446    -0.08500
C4951       C  0.85591389  0.76735309  0.62836735     0.61900
H4952       H  0.81431019  0.76461688  0.65033667     0.12500
H4953       H  0.85024505  0.82598079  0.56373005     0.12600
C4954       C  0.81184087  0.82721848  0.58987750     0.62100
F4955       F  0.84734088  0.75692295  0.65731873    -0.23100
F4956       F  0.88158011  0.78371294  0.63048821    -0.20400
F4957       F  0.85078250  0.74792383  0.60883311    -0.20100
F4958       F  0.80641198  0.83586574  0.61592790    -0.20100
F4959       F  0.79045334  0.81403216  0.57201361    -0.20500
F4960       F  0.82929680  0.84810156  0.57307642    -0.23100
C4961       C  0.71039656  0.69527126  0.58219314    -0.06000
C4962       C  0.71844927  0.69707893  0.61290583     0.00000
C4963       C  0.72285624  0.67796775  0.62470818    -0.08600
C4964       C  0.71736285  0.65740994  0.60585576    -0.06000
C4965       C  0.70980607  0.65622759  0.57518254    -0.00100
C4966       C  0.70745369  0.67615665  0.56278883    -0.08500
C4967       C  0.70306167  0.67928889  0.52917585     0.61900
H4968       H  0.70782078  0.70993507  0.57227257     0.12500
H4969       H  0.72027983  0.64260740  0.61437077     0.12600
C4970       C  0.73446778  0.67935965  0.65614349     0.62100
F4971       F  0.68113434  0.67953993  0.52649903    -0.23100
F4972       F  0.70144306  0.66049906  0.51104985    -0.20400
F4973       F  0.72261303  0.70215032  0.51832282    -0.20100
F4974       F  0.71954663  0.67989468  0.67866721    -0.20100
F4975       F  0.75818597  0.70075880  0.65763460    -0.20500
F4976       F  0.73690910  0.65875903  0.66231620    -0.23100
C4977       C  0.77214189  0.82666384  0.77415179    -0.06000
C4978       C  0.78175483  0.81588835  0.75486068     0.00000
C4979       C  0.80798259  0.82574999  0.75481176    -0.08600
C4980       C  0.82373729  0.84772273  0.77183364    -0.06000
C4981       C  0.81403933  0.85958428  0.78912249    -0.00100
C4982       C  0.78768267  0.84844045  0.79106191    -0.08500
C4983       C  0.77577040  0.86015453  0.80926690     0.61900
H4984       H  0.75202047  0.81838249  0.77479583     0.12500
H4985       H  0.84389773  0.85630335  0.77107768     0.12600
C4986       C  0.81941695  0.81383043  0.73626965     0.62100
F4987       F  0.78555234  0.88498511  0.79997760    -0.23100
F4988       F  0.78032160  0.85911598  0.84033521    -0.20400
F4989       F  0.75004675  0.84763924  0.80502236    -0.20100
F4990       F  0.84522005  0.82646344  0.73971878    -0.20100
F4991       F  0.81405321  0.81426607  0.70536067    -0.20500
F4992       F  0.80978258  0.78914121  0.74609868    -0.23100
C4993       C  0.64579144  0.66998053  0.76179676    -0.06000
C4994       C  0.63710803  0.67963399  0.78414066     0.00000
C4995       C  0.65158966  0.70585239  0.79070353    -0.08600
C4996       C  0.67326289  0.72145144  0.77341815    -0.06000
C4997       C  0.68116236  0.71218415  0.74975452    -0.00100
C4998       C  0.66789192  0.68574726  0.74486297    -0.08500
C4999       C  0.67692562  0.67422060  0.72205013     0.61900
H5000       H  0.63488912  0.64990200  0.75747097     0.12500
H5001       H  0.68393973  0.74156177  0.77756483     0.12600
C5002       C  0.64366894  0.71792176  0.81451647     0.62100
F5003       F  0.66104161  0.64830618  0.72027343    -0.23100
F5004       F  0.70025313  0.67906199  0.73144535    -0.20400
F5005       F  0.67847539  0.68448653  0.69303453    -0.20100
F5006       F  0.64454215  0.70892440  0.84357847    -0.20100
F5007       F  0.61962892  0.71245813  0.80808650    -0.20500
F5008       F  0.65919529  0.74394175  0.81478147    -0.23100
C5009       C  0.75665198  0.86695448  0.66796741    -0.06000
C5010       C  0.74969250  0.85264020  0.64105308     0.00000
C5011       C  0.74704465  0.86364430  0.61336439    -0.08600
C5012       C  0.74522657  0.88545473  0.61539886    -0.06000
C5013       C  0.74833951  0.89743270  0.64372206    -0.00100
C5014       C  0.75720534  0.88973104  0.66939766    -0.08500
C5015       C  0.76567903  0.90418540  0.69930807     0.61900
H5016       H  0.76050508  0.85953342  0.68873989     0.12500
H5017       H  0.74029013  0.89253893  0.59524805     0.12600
C5018       C  0.74714395  0.85325324  0.58213611     0.62100
F5019       F  0.78344479  0.90063844  0.71406866    -0.23100
F5020       F  0.74539899  0.89568734  0.71862224    -0.20400
F5021       F  0.77653422  0.92983083  0.69386145    -0.20100
F5022       F  0.72725628  0.82887563  0.57898961    -0.20100
F5023       F  0.76921962  0.85343985  0.57899251    -0.20500
F5024       F  0.74572793  0.86771056  0.55842723    -0.23100
C5025       C  0.63297828  0.73852530  0.65037564    -0.06000
C5026       C  0.65308520  0.75637797  0.63223091     0.00000
C5027       C  0.64963217  0.77297396  0.61274033    -0.08600
C5028       C  0.62677665  0.77223970  0.61366692    -0.06000
C5029       C  0.60825592  0.75686260  0.63494799    -0.00100
C5030       C  0.61077450  0.73894659  0.65277372    -0.08500
C5031       C  0.59082688  0.72142290  0.67555263     0.61900
H5032       H  0.63589988  0.72605586  0.66525104     0.12500
H5033       H  0.62439750  0.78583552  0.60042408     0.12600
C5034       C  0.67108222  0.79377580  0.59448414     0.62100
F5035       F  0.59570332  0.70368354  0.68801155    -0.23100
F5036       F  0.56776141  0.70868151  0.66101091    -0.20400
F5037       F  0.58978148  0.73520287  0.69936595    -0.20100
F5038       F  0.68024026  0.78348574  0.57450835    -0.20100
F5039       F  0.68970098  0.80967697  0.61474240    -0.20500
F5040       F  0.66391814  0.80804225  0.57728828    -0.23100
loop_ 
_geom_bond_atom_site_label_1 
_geom_bond_atom_site_label_2 
_geom_bond_distance 
_geom_bond_site_symmetry_2 
_ccdc_geom_bond_type 
Fe1          O17   2.041       .  S
Fe1           O7   2.053       .  S
Fe1          O14   2.055       .  S
Fe1           O6   2.048       .  S
Fe1          O12   1.968       .  S
Fe2           O5   2.077       .  S
Fe2           O9   2.072       .  S
Fe2          O13   2.083       .  S
Fe2          O18   2.057       .  S
Fe2          O12   1.982       .  S
Fe3          O21   2.075       .  S
Fe3           O8   2.081       .  S
Fe3          O15   2.093       .  S
Fe3           O4   2.098       .  S
Fe3          O12   1.977       .  S
O4           C11   1.272       .  A
O5           C19   1.272       .  A
O6           C11   1.264       .  A
O7           C10   1.270       .  A
O8           C20   1.278       .  A
O9           C22   1.267       .  A
C10          O15   1.273       .  A
C10         C600   1.489       .  S
C11         C616   1.489       .  S
O13          C16   1.271       .  A
O14          C16   1.266       .  A
C16         C587   1.475       .  S
O17          C22   1.264       .  A
O18          C20   1.265       .  A
C19          O21   1.269       .  A
C19         C536   1.501       .  S
C20         C552   1.501       .  S
C22         C568   1.477       .  S
Fe23         O39   2.052       .  S
Fe23         O29   2.045       .  S
Fe23         O36   2.046       .  S
Fe23         O28   2.052       .  S
Fe23         O34   1.969       .  S
Fe24         O27   2.069   1_565  S
Fe24         O31   2.093       .  S
Fe24         O35   2.082       .  S
Fe24         O40   2.080   1_565  S
Fe24       O1294   1.980       .  S
Fe25         O43   2.080       .  S
Fe25         O30   2.052       .  S
Fe25         O37   2.068       .  S
Fe25         O26   2.089       .  S
Fe25         O34   1.986       .  S
O26          C33   1.272       .  A
O27          C41   1.268       .  A
O28          C33   1.267       .  A
O29          C32   1.265       .  A
O30        C1302   1.267       .  A
O31        C1304   1.272       .  A
C32          O37   1.266       .  A
C32         C520   1.472       .  S
C33         C603   1.487       .  S
O34       Fe1284   1.979       .  S
O35        C1298   1.271       .  A
O36          C38   1.263       .  A
C38        O1295   1.270       .  A
C38         C507   1.484       .  S
O39          C44   1.266       .  A
O40          C42   1.270       .  A
C41        O1303   1.275   1_545  A
C41         C456   1.506       .  S
C42        O1290   1.267   1_545  A
C42         C475   1.497       .  S
O43        C1301   1.274       .  A
C44        O1291   1.271       .  A
C44         C491   1.486       .  S
Fe45         O61   2.035       .  S
Fe45         O51   2.050       .  S
Fe45         O58   2.056       .  S
Fe45         O50   2.037       .  S
Fe45         O56   1.966       .  S
Fe46         O49   2.074       .  S
Fe46         O62   2.058       .  S
Fe46       O2573   2.068       .  S
Fe46       O2577   2.075       .  S
Fe46       O2576   1.977       .  S
Fe47         O65   2.053       .  S
Fe47         O52   2.061       .  S
Fe47         O59   2.075       .  S
Fe47         O48   2.070       .  S
Fe47         O56   1.983       .  S
O48          C55   1.268       .  A
O49          C63   1.271       .  A
O50          C55   1.265       .  A
O51          C54   1.265       .  A
O52        C2584   1.270   1_455  A
O53       Fe2566   2.073       .  S
O53          C66   1.270       .  A
C54          O59   1.268       .  A
C54         C619   1.471       .  S
C55         C523   1.465       .  S
O56       Fe2566   1.977       .  S
O57       Fe2566   2.074       .  S
O57          C60   1.269       .  A
O58          C60   1.265       .  A
C60         C424   1.482       .  S
O61          C66   1.262       .  A
O62          C64   1.267       .  A
C63        O2585   1.264       .  A
C63         C408   1.487       .  S
C64        O2572   1.272       .  A
C64         C395   1.489       .  S
O65        C2583   1.266       .  A
C66         C440   1.476       .  S
Fe67         O83   2.054       .  S
Fe67         O73   2.045       .  S
Fe67         O80   2.052       .  S
Fe67         O72   2.049   1_554  S
Fe67         O78   1.959   1_554  S
Fe68         O75   2.087       .  S
Fe68         O79   2.101       .  S
Fe68        O701   2.078   1_554  S
Fe68        O714   2.073   1_554  S
Fe68         O78   1.963   1_554  S
Fe69         O87   2.073       .  S
Fe69         O74   2.063       .  S
Fe69         O81   2.089       .  S
Fe69         O70   2.084       .  S
Fe69        O708   1.985       .  S
O70          C77   1.271       .  A
O71        Fe698   2.078       .  S
O71          C85   1.276       .  A
O72         C707   1.269       .  A
O73         C706   1.264   1_554  A
O74          C86   1.268       .  A
O75          C88   1.271       .  A
C76          O81   1.269       .  A
C76         O703   1.262       .  A
C76         C376   1.479       .  S
C77         O702   1.269       .  A
C77         C360   1.476       .  S
O78        Fe699   1.974       .  S
O79          C82   1.275       .  A
O80          C82   1.265       .  A
C82         C555   1.481       .  S
O83          C88   1.266       .  A
O84        Fe698   2.080       .  S
O84          C86   1.271       .  A
C85          O87   1.273       .  A
C85         C344   1.495       .  S
C86         C328   1.487       .  S
C88         C459   1.493       .  S
Fe89        O105   2.044       .  S
Fe89         O95   2.052       .  S
Fe89        O102   2.043       .  S
Fe89         O94   2.048       .  S
Fe89        O100   1.970       .  S
Fe90         O97   2.084       .  S
Fe90        O101   2.077       .  S
Fe90        O723   2.071   1_554  S
Fe90        O736   2.074   1_554  S
Fe90        O100   1.983       .  S
Fe91        O109   2.076       .  S
Fe91         O96   2.062       .  S
Fe91        O103   2.076       .  S
Fe91         O92   2.081       .  S
Fe91        O730   1.981       .  S
O92          C99   1.270       .  A
O93        Fe720   2.057       .  S
O93         C107   1.265       .  A
O94         C729   1.266   1_554  A
O95         C728   1.266   1_554  A
O96         C108   1.268       .  A
O97         C110   1.272       .  A
C98         O103   1.270       .  A
C98         O725   1.267       .  A
C98         C312   1.473       .  S
C99         O724   1.266       .  A
C99         C379   1.477       .  S
O100       Fe721   1.985   1_554  S
O101        C104   1.268       .  A
O102        C104   1.264       .  A
C104        C472   1.478       .  S
O105        C110   1.264       .  A
O106       Fe720   2.085       .  S
O106        C108   1.276       .  A
C107        O109   1.272       .  A
C107        C280   1.496       .  S
C108        C296   1.505       .  S
C110        C411   1.480       .  S
Fe111       O127   2.057       .  S
Fe111       O117   2.054       .  S
Fe111       O124   2.053       .  S
Fe111       O116   2.047       .  S
Fe111       O122   1.966       .  S
Fe112       O119   2.090       .  S
Fe112       O123   2.063       .  S
Fe112       O745   2.054   1_554  S
Fe112       O758   2.078   1_554  S
Fe112       O122   1.979       .  S
Fe113       O131   2.064       .  S
Fe113       O118   2.053       .  S
Fe113       O125   2.067       .  S
Fe113       O114   2.080       .  S
Fe113       O752   1.986       .  S
O114        C121   1.268       .  A
O115       Fe742   2.046       .  S
O115        C129   1.263       .  A
O116        C751   1.265   1_554  A
O117        C750   1.269   1_554  A
O118        C130   1.265       .  A
O119        C132   1.272       .  A
C120        O125   1.268       .  A
C120        O747   1.267       .  A
C120        C363   1.476       .  S
C121        O746   1.264       .  A
C121        C315   1.478       .  S
O122       Fe743   1.989   1_554  S
O123        C126   1.265       .  A
O124        C126   1.267       .  A
C126        C392   1.481       .  S
O127        C132   1.265       .  A
O128       Fe742   2.084       .  S
O128        C130   1.274       .  A
C129        O131   1.270       .  A
C129        C248   1.483       .  S
C130        C267   1.496       .  S
C132        C539   1.488       .  S
Fe133       O149   2.043       .  S
Fe133       O139   2.050       .  S
Fe133       O146   2.047       .  S
Fe133       O138   2.049       .  S
Fe133       O144   1.965       .  S
Fe134       O137   2.053       .  S
Fe134       O141   2.069       .  S
Fe134       O145   2.065       .  S
Fe134       O150   2.063       .  S
Fe134       O144   1.983       .  S
Fe135       O153   2.062       .  S
Fe135       O140   2.070       .  S
Fe135       O147   2.089       .  S
Fe135       O136   2.077       .  S
Fe135       O144   1.988       .  S
O136        C143   1.269       .  A
O137        C151   1.264       .  A
O138        C143   1.268       .  A
O139        C142   1.265       .  A
O140        C152   1.270       .  A
O141        C154   1.268       .  A
C142        O147   1.270       .  A
C142        C232   1.483       .  S
C143       C1476   1.476       .  S
O145        C148   1.266       .  A
O146        C148   1.263       .  A
C148        C299   1.472       .  S
O149        C154   1.267       .  A
O150        C152   1.270       .  A
C151        O153   1.270       .  A
C151        C571   1.489       .  S
C152        C504   1.488       .  S
C154        C251   1.480       .  S
Fe155       O171   2.036       .  S
Fe155       O161   2.041       .  S
Fe155       O168   2.058       .  S
Fe155       O160   2.048       .  S
Fe155       O166   1.936       .  S
Fe156       O159   2.057       .  S
Fe156       O163   2.097       .  S
Fe156       O167   2.074       .  S
Fe156       O172   2.085       .  S
Fe156       O166   1.947       .  S
Fe157       O175   2.096       .  S
Fe157       O162   2.043       .  S
Fe157       O169   2.062       .  S
Fe157       O158   2.110       .  S
Fe157       O166   1.961       .  S
O158        C165   1.276       .  A
O159        C173   1.265       .  A
O160        C165   1.271       .  A
O161        C164   1.266       .  A
O162        C174   1.266       .  A
O163        C176   1.278       .  A
C164        O169   1.266       .  A
C164       C1460   1.465       .  S
C165       C2755   1.498   1_455  S
O167        C170   1.267       .  A
O168        C170   1.264       .  A
C170        C264   1.479       .  S
O171        C176   1.265       .  A
O172        C174   1.279       .  A
C173        O175   1.274       .  A
C173        C488   1.496       .  S
C174        C427   1.495       .  S
C176        C347   1.486       .  S
Fe177       O193   2.058       .  S
Fe177       O183   2.048       .  S
Fe177       O190   2.049       .  S
Fe177       O182   2.057       .  S
Fe177       O188   1.952       .  S
Fe178       O181   2.059       .  S
Fe178       O185   2.081       .  S
Fe178       O189   2.083       .  S
Fe178       O194   2.072       .  S
Fe178       O188   1.960       .  S
Fe179       O197   2.050       .  S
Fe179       O184   2.063       .  S
Fe179       O191   2.085       .  S
Fe179       O180   2.067       .  S
Fe179       O188   1.967       .  S
O180        C187   1.266       .  A
O181        C195   1.272       .  A
O182        C187   1.267       .  A
O183        C186   1.270       .  A
O184        C196   1.269       .  A
O185        C198   1.267       .  A
C186        O191   1.270       .  A
C186       C2739   1.489   1_455  S
C187        C203   1.470       .  S
O189        C192   1.276       .  A
O190        C192   1.268       .  A
C192        C331   1.479       .  S
O193        C198   1.264       .  A
O194        C196   1.268       .  A
C195        O197   1.268       .  A
C195        C443   1.477       .  S
C196        C584   1.504       .  S
C198        C283   1.490       .  S
C199        C200   1.398       .  A
C199        C204   1.389       .  A
C199       H1466   1.085   1_545  S
C200       C1424   1.470   1_545  S
C200        C201   1.414       .  A
C201        C202   1.414       .  A
C201        C208   1.515       .  S
C202        C203   1.408       .  A
C202        H207   1.083       .  S
C203        C204   1.415       .  A
C204        C205   1.517       .  S
C205        F209   1.384   1_455  S
C205        F210   1.376       .  S
C205        F211   1.383   1_455  S
H206       C1459   1.086       .  S
C208        F212   1.383       .  S
C208        F213   1.383       .  S
C208        F214   1.384       .  S
C215        C216   1.403       .  A
C215        C220   1.411       .  A
C215        H222   1.083       .  S
C216       C1403   1.475   1_545  S
C216        C217   1.415       .  A
C217        C218   1.396       .  A
C217        C224   1.517       .  S
C218        C219   1.405       .  A
C218        H223   1.085       .  S
C219       C2706   1.484       .  S
C219        C220   1.420       .  A
C220       C2741   1.515       .  S
C221       C2740   1.515       .  S
C221        F225   1.384       .  S
C221        F226   1.381       .  S
C221        F227   1.381       .  S
C224        F228   1.383       .  S
C224        F229   1.383       .  S
C224        F230   1.384       .  S
C231        C232   1.403       .  A
C231        C236   1.416       .  A
C231        H238   1.083       .  S
C232        C233   1.415       .  A
C233        C234   1.402       .  A
C233        C240   1.518       .  S
C234        C235   1.407       .  A
C234        H239   1.084       .  S
C235       C2685   1.497       .  S
C235        C236   1.426       .  A
C236       C2757   1.519       .  S
C237       C2756   1.518       .  S
C237        F242   1.384       .  S
C237        F243   1.380   1_655  S
C237       F2761   1.385       .  S
C240        F244   1.384       .  S
C240        F245   1.382       .  S
C240        F246   1.385       .  S
F241       C2757   1.385       .  S
C247        C248   1.405       .  A
C247        C252   1.405       .  A
C247        H254   1.083       .  S
C248        C249   1.423       .  A
C249        C250   1.402       .  A
C249        C256   1.523       .  S
C250        C251   1.403       .  A
C250        H255   1.084       .  S
C251        C252   1.418       .  A
C252        C253   1.518       .  S
C253        F257   1.385       .  S
C253        F258   1.383       .  S
C253        F259   1.383       .  S
C256        F260   1.384       .  S
C256        F262   1.385       .  S
C256        F891   1.383       .  S
F261        C886   1.383   1_554  S
C263        C264   1.399       .  A
C263       C2788   1.408   1_455  A
C263        H270   1.083       .  S
C264        C265   1.417       .  A
C265       C2786   1.404   1_455  A
C265        C272   1.516       .  S
C266        C267   1.405       .  A
C266       C2785   1.404       .  A
C266        H271   1.084       .  S
C267        C268   1.428       .  A
C268       C2783   1.411       .  A
C268        C269   1.520       .  S
C269        F273   1.385       .  S
C269        F274   1.383       .  S
C269        F275   1.384       .  S
C272        F276   1.383       .  S
C272        F277   1.383       .  S
C272        F278   1.384       .  S
C279        C280   1.409       .  A
C279        C284   1.409       .  A
C279        H286   1.082       .  S
C280        C281   1.428       .  A
C281       C2802   1.408       .  A
C281        C288   1.524       .  S
C282        C283   1.402       .  A
C282       C2801   1.410   1_455  A
C282        H287   1.083       .  S
C283       C2804   1.418       .  A
C284       C2803   1.415       .  A
C284        C285   1.518       .  S
C285        F289   1.384       .  S
C285       F2810   1.383       .  S
C285       F2811   1.382       .  S
C288        F292   1.384       .  S
C288        F923   1.383       .  S
C288       F2814   1.385       .  S
F290       C2805   1.383       .  S
F291       C2805   1.383       .  S
F293        C918   1.383   1_554  S
F294       C2808   1.385   1_455  S
C295        C296   1.412       .  A
C295       C1560   1.407   1_545  A
C295        H302   1.082       .  S
C296        C297   1.432       .  A
C297       C1558   1.411   1_545  A
C297        C304   1.522       .  S
C298        C299   1.400       .  A
C298       C1557   1.406       .  A
C298        H303   1.083       .  S
C299        C300   1.414       .  A
C300       C1555   1.402       .  A
C300        C301   1.520       .  S
C301        F305   1.385       .  S
C301        F306   1.382       .  S
C301        F307   1.384       .  S
C304        F308   1.383       .  S
C304        F309   1.383       .  S
C304        F310   1.385       .  S
C311        C312   1.405       .  A
C311        C316   1.412       .  A
C311        H318   1.083       .  S
C312        C313   1.415       .  A
C313        C314   1.400       .  A
C313        C320   1.518       .  S
C314        C315   1.403       .  A
C314        H319   1.085       .  S
C315        C316   1.417       .  A
C316        C317   1.517       .  S
C317        F321   1.385       .  S
C317        F322   1.383       .  S
C317        F953   1.384       .  S
C320        F324   1.384       .  S
C320        F325   1.383       .  S
C320        F326   1.384       .  S
F323        C947   1.383       .  S
C327        C328   1.404       .  A
C327        C332   1.406       .  A
C327        H334   1.083       .  S
C328        C329   1.416       .  A
C329        C330   1.405       .  A
C329        C336   1.505       .  S
C330        C331   1.400       .  A
C330        H335   1.083       .  S
C331        C332   1.420       .  A
C332        C333   1.521       .  S
C333        F337   1.385       .  S
C333        F338   1.384       .  S
C333        F339   1.382       .  S
C336        F340   1.382       .  S
C336        F341   1.381       .  S
C336        F342   1.385       .  S
C343        C344   1.406       .  A
C343        C348   1.403       .  A
C343        H350   1.083       .  S
C344        C345   1.422       .  A
C345       C1606   1.414   1_545  A
C345        C352   1.518       .  S
C346        C347   1.407       .  A
C346       C1605   1.410       .  A
C346        H351   1.084       .  S
C347       C1608   1.423       .  A
C348       C1607   1.422   1_545  A
C348       C1609   1.521   1_545  S
C349       C1608   1.525       .  S
C349        F354   1.382       .  S
C349       F1613   1.385       .  S
C349       F1615   1.384       .  S
C352        F356   1.383       .  S
C352        F357   1.383       .  S
C352       F1618   1.385       .  S
F353       C1609   1.385   1_545  S
F355       C1609   1.383   1_545  S
F358       C1612   1.385       .  S
C359        C360   1.404       .  A
C359        C364   1.396       .  A
C359        H366   1.086       .  S
C360        C361   1.414       .  A
C361        C362   1.410       .  A
C361        C368   1.515       .  S
C362        C363   1.407       .  A
C362        H367   1.085       .  S
C363        C364   1.416       .  A
C364        C365   1.518       .  S
C365        F369   1.385       .  S
C365        F370   1.384       .  S
C365       F1001   1.383       .  S
C368        F372   1.383       .  S
C368        F373   1.377       .  S
C368        F374   1.385       .  S
F371        C995   1.383       .  S
C375        C376   1.404       .  A
C375        C380   1.407       .  A
C375        H382   1.084       .  S
C376        C377   1.416       .  A
C377        C378   1.407       .  A
C377       C1014   1.513       .  S
C378        C379   1.402       .  A
C378       H1013   1.084       .  S
C379        C380   1.416       .  A
C380        C381   1.518       .  S
C381        F385   1.385       .  S
C381        F386   1.381       .  S
C381        F387   1.383       .  S
H383       C1008   1.084       .  S
C384       C1007   1.513       .  S
C384        F388   1.382       .  S
C384        F390   1.385       .  S
C384       F1019   1.383       .  S
F389       C1014   1.383       .  S
C391        C392   1.401       .  A
C391        C396   1.404       .  A
C391        H398   1.083       .  S
C392        C393   1.419       .  A
C393        C394   1.407       .  A
C393        C400   1.521       .  S
C394        C395   1.407       .  A
C394        H399   1.082       .  S
C395        C396   1.425       .  A
C396        C397   1.523       .  S
C397        F401   1.385       .  S
C397        F402   1.383       .  S
C397        F403   1.384       .  S
C400        F404   1.382       .  S
C400        F405   1.383       .  S
C400        F406   1.385       .  S
C407        C408   1.404       .  A
C407        C412   1.405       .  A
C407        H414   1.082       .  S
C408        C409   1.423       .  A
C409        C410   1.407       .  A
C409       C2936   1.519       .  S
C410        C411   1.400       .  A
C410        H415   1.081       .  S
C411        C412   1.419       .  A
C412        C413   1.520       .  S
C413        F417   1.385       .  S
C413        F418   1.383       .  S
C413        F419   1.382       .  S
C416       C2929   1.519   1_455  S
C416        F420   1.383       .  S
C416        F421   1.383       .  S
C416        F422   1.385       .  S
C423        C424   1.401       .  A
C423        C428   1.410       .  A
C423        H430   1.083       .  S
C424        C425   1.416       .  A
C425        C426   1.400       .  A
C425        C432   1.514       .  S
C426        C427   1.405       .  A
C426        H431   1.082       .  S
C427        C428   1.430       .  A
C428        C429   1.522       .  S
C429        F433   1.385   1_455  S
C429        F434   1.384       .  S
C429        F435   1.384   1_455  S
C432        F436   1.382       .  S
C432        F437   1.383       .  S
C432        F438   1.385       .  S
C439        C440   1.404       .  A
C439        C444   1.404       .  A
C439       H2966   1.083       .  S
C440        C441   1.422       .  A
C441        C442   1.396       .  A
C441        C448   1.519       .  S
C442        C443   1.401       .  A
C442        H447   1.085       .  S
C443        C444   1.419       .  A
C444       C2965   1.519       .  S
C445       C2964   1.520       .  S
C445        F449   1.385       .  S
C445        F451   1.382       .  S
C445       F2970   1.382       .  S
H446       C2959   1.083       .  S
C448        F452   1.385       .  S
C448        F453   1.383       .  S
C448        F454   1.373       .  S
F450       C2965   1.383   1_655  S
C455        C456   1.410       .  A
C455        C460   1.414       .  A
C455        H462   1.082   1_545  S
C456        C457   1.428       .  A
C457        C458   1.408       .  A
C457       C1724   1.520       .  S
C458        C459   1.402       .  A
C458        H463   1.083       .  S
C459        C460   1.418       .  A
C460        C461   1.518       .  S
C461        F465   1.384   1_545  S
C461        F466   1.383       .  S
C461        F467   1.383       .  S
C464       C1717   1.520       .  S
C464        F468   1.385       .  S
C464       F1729   1.380       .  S
C464       F1730   1.382       .  S
F469       C1724   1.379       .  S
F470       C1724   1.382       .  S
C471        C472   1.402       .  A
C471        C476   1.405       .  A
C471        H478   1.082       .  S
C472        C473   1.411       .  A
C473        C474   1.407       .  A
C473        C480   1.519       .  S
C474        C475   1.413       .  A
C474        H479   1.082   1_545  S
C475        C476   1.423       .  A
C476        C477   1.519       .  S
C477        F481   1.385       .  S
C477        F482   1.383       .  S
C477       F1743   1.378       .  S
C480        F484   1.383       .  S
C480        F485   1.383       .  S
C480        F486   1.385   1_545  S
F483       C1737   1.379       .  S
C487        C488   1.409       .  A
C487        C492   1.414       .  A
C487        H494   1.085       .  S
C488        C489   1.427       .  A
C489        C490   1.406       .  A
C489        C496   1.523       .  S
C490        C491   1.400       .  A
C490        H495   1.085       .  S
C491        C492   1.417       .  A
C492       C1753   1.517       .  S
C493       C1752   1.517       .  S
C493        F497   1.384       .  S
C493        F498   1.384       .  S
C493        F499   1.381   1_565  S
C496        F500   1.383       .  S
C496        F501   1.383       .  S
C496        F502   1.385       .  S
C503        C504   1.405       .  A
C503        C508   1.405       .  A
C503        H510   1.084       .  S
C504        C505   1.421       .  A
C505        C506   1.409       .  A
C505        C512   1.520       .  S
C506        C507   1.405       .  A
C506       H1771   1.084       .  S
C507        C508   1.419       .  A
C508        C509   1.520       .  S
C509        F513   1.385       .  S
C509        F514   1.382       .  S
C509        F515   1.384       .  S
H511       C1766   1.083       .  S
C512        F516   1.382       .  S
C512       F1777   1.384       .  S
C512       F1778   1.385       .  S
F517       C1772   1.384       .  S
F518       C1772   1.385   1_545  S
C519        C520   1.403       .  A
C519        C524   1.399       .  A
C519        H526   1.085       .  S
C520        C521   1.418       .  A
C521        C522   1.407       .  A
C521        C528   1.518       .  S
C522        C523   1.401       .  A
C522        H527   1.083       .  S
C523        C524   1.413       .  A
C524        C525   1.517       .  S
C525        F529   1.384       .  S
C525        F530   1.383       .  S
C525        F531   1.385       .  S
C528        F532   1.383       .  S
C528        F533   1.382       .  S
C528        F534   1.385       .  S
C535        C536   1.409       .  A
C535        C540   1.411       .  A
C535        H542   1.083       .  S
C536        C537   1.426       .  A
C537        C538   1.412       .  A
C537        C544   1.519       .  S
C538        C539   1.402       .  A
C538        H543   1.084       .  S
C539        C540   1.418       .  A
C540        C541   1.520       .  S
C541        F545   1.385       .  S
C541        F546   1.384       .  S
C541        F547   1.382       .  S
C544        F548   1.384       .  S
C544        F549   1.383       .  S
C544        F550   1.385       .  S
C551        C552   1.404       .  A
C551        C556   1.401       .  A
C551        H558   1.084       .  S
C552        C553   1.433       .  A
C553        C554   1.414       .  A
C553        C560   1.523       .  S
C554        C555   1.399       .  A
C554        H559   1.083       .  S
C555        C556   1.416       .  A
C556        C557   1.510       .  S
C557        F561   1.382       .  S
C557        F562   1.380       .  S
C557        F563   1.383       .  S
C560        F564   1.379       .  S
C560        F565   1.383       .  S
C560        F566   1.385       .  S
C567        C568   1.401       .  A
C567        C572   1.405       .  A
C567        H574   1.084       .  S
C568        C569   1.415       .  A
C569        C570   1.405       .  A
C569        C576   1.519       .  S
C570        C571   1.408       .  A
C570        H575   1.083       .  S
C571        C572   1.426       .  A
C572        C573   1.523       .  S
C573        F577   1.384       .  S
C573        F578   1.383       .  S
C573        F579   1.385       .  S
C576        F580   1.385       .  S
C576        F581   1.383       .  S
C576        F582   1.383       .  S
C583        C584   1.412       .  A
C583        C588   1.404       .  A
C583        H590   1.081       .  S
C584        C585   1.429       .  A
C585        C586   1.413       .  A
C585        C592   1.520       .  S
C586        C587   1.399       .  A
C586        H591   1.083       .  S
C587        C588   1.411       .  A
C588        C589   1.519       .  S
C589        F593   1.384       .  S
C589        F594   1.378       .  S
C589        F595   1.380       .  S
C592        F596   1.384       .  S
C592        F597   1.383       .  S
C592        F598   1.385       .  S
C599        C600   1.404       .  A
C599        C604   1.400       .  A
C599        H606   1.085       .  S
C600        C601   1.419       .  A
C601        C602   1.416       .  A
C601        C608   1.517       .  S
C602        C603   1.407       .  A
C602        H607   1.083       .  S
C603        C604   1.419       .  A
C604        C605   1.519       .  S
C605        F609   1.385       .  S
C605        F610   1.381       .  S
C605        F611   1.384       .  S
C608        F612   1.377       .  S
C608        F613   1.383       .  S
C608        F614   1.384       .  S
C615        C616   1.405       .  A
C615        C620   1.404       .  A
C615        H622   1.077       .  S
C616        C617   1.420       .  A
C617        C618   1.408       .  A
C617        C624   1.510       .  S
C618        C619   1.399       .  A
C618        H623   1.083       .  S
C619        C620   1.415       .  A
C620        C621   1.518       .  S
C621        F625   1.384       .  S
C621        F626   1.382       .  S
C621        F627   1.383       .  S
C624        F628   1.382       .  S
C624        F629   1.382       .  S
C624        F630   1.385       .  S
Fe631       O647   2.033       .  S
Fe631       O637   2.047       .  S
Fe631       O644   2.053       .  S
Fe631       O636   2.039       .  S
Fe631       O642   1.971       .  S
Fe632       O635   2.076       .  S
Fe632       O639   2.076       .  S
Fe632       O643   2.093       .  S
Fe632       O648   2.066       .  S
Fe632       O642   1.988       .  S
Fe633       O651   2.071       .  S
Fe633       O638   2.089       .  S
Fe633       O645   2.098       .  S
Fe633       O634   2.100       .  S
Fe633       O642   1.984       .  S
O634        C641   1.274       .  A
O635        C649   1.273       .  A
O636        C641   1.263       .  A
O637        C640   1.268       .  A
O638        C650   1.278       .  A
O639        C652   1.267       .  A
C640        O645   1.272       .  A
C640       C1230   1.494       .  S
C641       C1246   1.485       .  S
O643        C646   1.273       .  A
O644        C646   1.266       .  A
C646       C1217   1.480       .  S
O647        C652   1.262       .  A
O648        C650   1.267       .  A
C649        O651   1.269       .  A
C649       C1166   1.498       .  S
C650       C1182   1.511       .  S
C652       C1198   1.477       .  S
Fe653       O669   2.052       .  S
Fe653       O659   2.046       .  S
Fe653       O666   2.051       .  S
Fe653       O658   2.050       .  S
Fe653       O664   1.969       .  S
Fe654       O657   2.066   1_565  S
Fe654       O661   2.098       .  S
Fe654       O665   2.077       .  S
Fe654       O670   2.085   1_565  S
Fe654      O1924   1.984       .  S
Fe655       O673   2.085       .  S
Fe655       O660   2.042       .  S
Fe655       O667   2.059       .  S
Fe655       O656   2.091       .  S
Fe655       O664   1.988       .  S
O656        C663   1.272       .  A
O657        C671   1.270       .  A
O658        C663   1.267       .  A
O659        C662   1.266       .  A
O660       C1932   1.266       .  A
O661       C1934   1.272       .  A
C662        O667   1.264       .  A
C662       C1150   1.466       .  S
C663       C1233   1.486       .  S
O664      Fe1914   1.979       .  S
O665       C1928   1.271       .  A
O666        C668   1.263       .  A
C668       O1925   1.268       .  A
C668       C1137   1.483       .  S
O669        C674   1.267       .  A
O670        C672   1.270       .  A
C671       O1933   1.277   1_545  A
C671       C1086   1.499       .  S
C672       O1920   1.265   1_545  A
C672       C1105   1.499       .  S
O673       C1931   1.273       .  A
C674       O1921   1.272       .  A
C674       C1121   1.484       .  S
Fe675       O691   2.036       .  S
Fe675       O681   2.054       .  S
Fe675       O688   2.051       .  S
Fe675       O680   2.039       .  S
Fe675       O686   1.968       .  S
Fe676       O679   2.075       .  S
Fe676      O3203   2.060       .  S
Fe676      O3207   2.080       .  S
Fe676       O692   2.046       .  S
Fe676      O3206   1.976       .  S
Fe677       O695   2.057       .  S
Fe677       O682   2.068       .  S
Fe677       O689   2.076       .  S
Fe677       O678   2.067       .  S
Fe677       O686   1.986       .  S
O678        C685   1.267       .  A
O679        C693   1.272       .  A
O680        C685   1.266       .  A
O681        C684   1.266       .  A
O682       C3214   1.271   1_455  A
O683      Fe3196   2.065       .  S
O683        C696   1.270       .  A
C684        O689   1.268       .  A
C684       C1249   1.473       .  S
C685       C1153   1.464       .  S
O686      Fe3196   1.974       .  S
O687      Fe3196   2.063       .  S
O687        C690   1.266       .  A
O688        C690   1.263       .  A
C690       C1054   1.470       .  S
O691        C696   1.261       .  A
O692        C694   1.265       .  A
C693       O3215   1.265       .  A
C693       C1038   1.490       .  S
C694       O3202   1.269       .  A
C694       C1025   1.475       .  S
O695       C3213   1.268       .  A
C696       C1070   1.480       .  S
Fe697       O713   2.046       .  S
Fe697       O703   2.042       .  S
Fe697       O710   2.054       .  S
Fe697       O702   2.043       .  S
Fe697       O708   1.966       .  S
Fe698       O705   2.094       .  S
Fe698       O709   2.106       .  S
Fe698       O708   1.971       .  S
Fe699       O717   2.068       .  S
Fe699       O704   2.074       .  S
Fe699       O711   2.096       .  S
Fe699       O700   2.078       .  S
O700        C707   1.270       .  A
O701        C715   1.277       .  A
O704        C716   1.270       .  A
O705        C718   1.272       .  A
C706        O711   1.272       .  A
C706       C1006   1.487       .  S
C707        C990   1.474       .  S
O709        C712   1.275       .  A
O710        C712   1.264       .  A
C712       C1185   1.487       .  S
O713        C718   1.266       .  A
O714        C716   1.269       .  A
C715        O717   1.272       .  A
C715        C974   1.490       .  S
C716        C958   1.488       .  S
C718       C1089   1.496       .  S
Fe719       O735   2.044       .  S
Fe719       O725   2.050       .  S
Fe719       O732   2.051       .  S
Fe719       O724   2.050       .  S
Fe719       O730   1.965       .  S
Fe720       O727   2.090       .  S
Fe720       O731   2.070       .  S
Fe720       O730   1.974       .  S
Fe721       O739   2.073       .  S
Fe721       O726   2.064       .  S
Fe721       O733   2.075       .  S
Fe721       O722   2.083       .  S
O722        C729   1.271       .  A
O723        C737   1.268       .  A
O726        C738   1.267       .  A
O727        C740   1.273       .  A
C728        O733   1.268       .  A
C728        C942   1.475       .  S
C729       C1009   1.478       .  S
O731        C734   1.267       .  A
O732        C734   1.265       .  A
C734       C1102   1.476       .  S
O735        C740   1.265       .  A
O736        C738   1.273       .  A
C737        O739   1.272       .  A
C737        C910   1.507       .  S
C738        C926   1.496       .  S
C740       C1041   1.481       .  S
Fe741       O757   2.047       .  S
Fe741       O747   2.048       .  S
Fe741       O754   2.044       .  S
Fe741       O746   2.044       .  S
Fe741       O752   1.966       .  S
Fe742       O749   2.090       .  S
Fe742       O753   2.056       .  S
Fe742       O752   1.980       .  S
Fe743       O761   2.067       .  S
Fe743       O748   2.053       .  S
Fe743       O755   2.065       .  S
Fe743       O744   2.079       .  S
O744        C751   1.268       .  A
O745        C759   1.265       .  A
O748        C760   1.265       .  A
O749        C762   1.272       .  A
C750        O755   1.267       .  A
C750        C993   1.475       .  S
C751        C945   1.478       .  S
O753        C756   1.264       .  A
O754        C756   1.266       .  A
C756       C1022   1.476       .  S
O757        C762   1.263       .  A
O758        C760   1.273       .  A
C759        O761   1.270       .  A
C759        C878   1.485       .  S
C760        C897   1.493       .  S
C762       C1169   1.487       .  S
Fe763       O779   2.041       .  S
Fe763       O769   2.049       .  S
Fe763       O776   2.044       .  S
Fe763       O768   2.046       .  S
Fe763       O774   1.966       .  S
Fe764       O767   2.056       .  S
Fe764       O771   2.078       .  S
Fe764       O775   2.072       .  S
Fe764       O780   2.070       .  S
Fe764       O774   1.983       .  S
Fe765       O783   2.057       .  S
Fe765       O770   2.072       .  S
Fe765       O777   2.097       .  S
Fe765       O766   2.071       .  S
Fe765       O774   1.987       .  S
O766        C773   1.268       .  A
O767        C781   1.266       .  A
O768        C773   1.268       .  A
O769        C772   1.265       .  A
O770        C782   1.270       .  A
O771        C784   1.270       .  A
C772        O777   1.271       .  A
C772        C862   1.488       .  S
C773       C2106   1.474       .  S
O775        C778   1.267       .  A
O776        C778   1.263       .  A
C778        C929   1.474       .  S
O779        C784   1.267       .  A
O780        C782   1.271       .  A
C781        O783   1.270       .  A
C781       C1201   1.487       .  S
C782       C1134   1.493       .  S
C784        C881   1.482       .  S
Fe785       O801   2.031       .  S
Fe785       O791   2.049       .  S
Fe785       O798   2.059       .  S
Fe785       O790   2.047       .  S
Fe785       O796   1.930       .  S
Fe786       O789   2.061       .  S
Fe786       O793   2.112       .  S
Fe786       O797   2.077       .  S
Fe786       O802   2.096       .  S
Fe786       O796   1.941       .  S
Fe787       O805   2.097       .  S
Fe787       O792   2.034       .  S
Fe787       O799   2.058       .  S
Fe787       O788   2.101       .  S
Fe787       O796   1.949       .  S
O788        C795   1.274       .  A
O789        C803   1.267       .  A
O790        C795   1.269       .  A
O791        C794   1.267       .  A
O792        C804   1.263       .  A
O793        C806   1.280       .  A
C794        O799   1.267       .  A
C794       C2090   1.461       .  S
C795       C3385   1.496   1_455  S
O797        C800   1.269       .  A
O798        C800   1.265       .  A
C800        C894   1.479       .  S
O801        C806   1.264       .  A
O802        C804   1.280       .  A
C803        O805   1.275       .  A
C803       C1118   1.497       .  S
C804       C1057   1.492       .  S
C806        C977   1.490       .  S
Fe807       O823   2.049       .  S
Fe807       O813   2.043       .  S
Fe807       O820   2.049       .  S
Fe807       O812   2.041       .  S
Fe807       O818   1.966       .  S
Fe808       O811   2.049       .  S
Fe808       O815   2.085       .  S
Fe808       O819   2.072       .  S
Fe808       O824   2.075       .  S
Fe808       O818   1.976       .  S
Fe809       O827   2.056       .  S
Fe809       O814   2.069       .  S
Fe809       O821   2.074       .  S
Fe809       O810   2.079       .  S
Fe809       O818   1.983       .  S
O810        C817   1.269       .  A
O811        C825   1.269       .  A
O812        C817   1.263       .  A
O813        C816   1.269       .  A
O814        C826   1.270       .  A
O815        C828   1.267       .  A
C816        O821   1.268       .  A
C816       C3369   1.478   1_455  S
C817        C833   1.469       .  S
O819        C822   1.273       .  A
O820        C822   1.266       .  A
C822        C961   1.474       .  S
O823        C828   1.262       .  A
O824        C826   1.268       .  A
C825        O827   1.268       .  A
C825       C1073   1.466       .  S
C826       C1214   1.509       .  S
C828        C913   1.486       .  S
C829        C830   1.396       .  A
C829        C834   1.389       .  A
C829       H2096   1.087   1_545  S
C830       C2054   1.469   1_545  S
C830        C831   1.413       .  A
C831        C832   1.414       .  A
C831        C838   1.515       .  S
C832        C833   1.408       .  A
C832        H837   1.085       .  S
C833        C834   1.420       .  A
C834        C835   1.520       .  S
C835        F839   1.384   1_455  S
C835        F840   1.372       .  S
C835        F841   1.384   1_455  S
H836       C2089   1.084       .  S
C838        F842   1.383       .  S
C838        F843   1.384       .  S
C838        F844   1.384       .  S
C845        C846   1.401       .  A
C845        C850   1.410       .  A
C845        H852   1.083       .  S
C846       C2033   1.471   1_545  S
C846        C847   1.414       .  A
C847        C848   1.396       .  A
C847        C854   1.517       .  S
C848        C849   1.404       .  A
C848        H853   1.085       .  S
C849       C3336   1.484       .  S
C849        C850   1.424       .  A
C850       C3371   1.519       .  S
C851       C3370   1.519       .  S
C851        F855   1.385       .  S
C851        F856   1.380   1_655  S
C851        F857   1.383       .  S
C854        F858   1.383       .  S
C854        F859   1.384       .  S
C854        F860   1.384       .  S
C861        C862   1.404       .  A
C861        C866   1.419       .  A
C861        H868   1.083       .  S
C862        C863   1.416       .  A
C863        C864   1.403       .  A
C863        C870   1.519       .  S
C864        C865   1.408       .  A
C864        H869   1.085       .  S
C865       C3315   1.505       .  S
C865        C866   1.428       .  A
C866       C3387   1.518       .  S
C867       C3386   1.519       .  S
C867       F3391   1.385       .  S
C867        F872   1.383       .  S
C867        F873   1.380   1_655  S
C870        F874   1.383       .  S
C870        F875   1.382       .  S
C870        F876   1.384       .  S
F871       C3387   1.385       .  S
C877        C878   1.407       .  A
C877        C882   1.409       .  A
C877        H884   1.083       .  S
C878        C879   1.421       .  A
C879        C880   1.402       .  A
C879        C886   1.523       .  S
C880        C881   1.403       .  A
C880        H885   1.084       .  S
C881        C882   1.418       .  A
C882        C883   1.519       .  S
C883        F887   1.385       .  S
C883        F888   1.383       .  S
C883        F889   1.382       .  S
C886        F890   1.384       .  S
C886        F892   1.385       .  S
C893        C894   1.399       .  A
C893       C3418   1.410   1_455  A
C893        H900   1.083       .  S
C894        C895   1.416       .  A
C895       C3416   1.404   1_455  A
C895        C902   1.518       .  S
C896       C3415   1.400       .  A
C896        C897   1.404       .  A
C896        H901   1.083       .  S
C897        C898   1.428       .  A
C898       C3413   1.410       .  A
C898        C899   1.519       .  S
C899        F903   1.385       .  S
C899        F904   1.382       .  S
C899        F905   1.384       .  S
C902        F906   1.383       .  S
C902        F907   1.383       .  S
C902        F908   1.384       .  S
C909        C910   1.412       .  A
C909        C914   1.407       .  A
C909        H916   1.082       .  S
C910        C911   1.431       .  A
C911       C3432   1.413       .  A
C911        C918   1.521       .  S
C912       C3431   1.410   1_455  A
C912        C913   1.401       .  A
C912        H917   1.083       .  S
C913       C3434   1.416       .  A
C914       C3433   1.412       .  A
C914        C915   1.520       .  S
C915        F919   1.384       .  S
C915       F3440   1.383       .  S
C915       F3441   1.383       .  S
C918        F922   1.383   1_556  S
C918       F3444   1.385   1_556  S
F920       C3435   1.380       .  S
F921       C3435   1.382       .  S
F924       C3438   1.385       .  S
C925        C926   1.408       .  A
C925       C2190   1.404   1_545  A
C925        H932   1.083       .  S
C926        C927   1.427       .  A
C927       C2188   1.410   1_545  A
C927        C934   1.520       .  S
C928       C2187   1.408       .  A
C928        C929   1.401       .  A
C928        H933   1.083       .  S
C929        C930   1.415       .  A
C930       C2185   1.402       .  A
C930        C931   1.520       .  S
C931        F935   1.385       .  S
C931        F936   1.382       .  S
C931        F937   1.384       .  S
C934        F938   1.383       .  S
C934        F939   1.384       .  S
C934        F940   1.385       .  S
C941        C942   1.404       .  A
C941        C946   1.410       .  A
C941        H948   1.084       .  S
C942        C943   1.414       .  A
C943        C944   1.403       .  A
C943        C950   1.518   1_556  S
C944        C945   1.403       .  A
C944        H949   1.084   1_556  S
C945        C946   1.416       .  A
C946        C947   1.517       .  S
C947        F951   1.385       .  S
C947        F952   1.383       .  S
C950        F954   1.384   1_554  S
C950        F955   1.381       .  S
C950        F956   1.385       .  S
C957        C958   1.405       .  A
C957        C962   1.405       .  A
C957        H964   1.083       .  S
C958        C959   1.420       .  A
C959        C960   1.404       .  A
C959        C966   1.506       .  S
C960        C961   1.397       .  A
C960        H965   1.083       .  S
C961        C962   1.418       .  A
C962        C963   1.520       .  S
C963        F967   1.385       .  S
C963        F968   1.383       .  S
C963        F969   1.382       .  S
C966        F970   1.381       .  S
C966        F971   1.382   1_556  S
C966        F972   1.385       .  S
C973        C974   1.403       .  A
C973        C978   1.403       .  A
C973        H980   1.083       .  S
C974        C975   1.420       .  A
C975       C2236   1.413   1_545  A
C975        C982   1.518       .  S
C976       C2235   1.414       .  A
C976        C977   1.407       .  A
C976        H981   1.084       .  S
C977       C2238   1.424       .  A
C978       C2237   1.427   1_545  A
C978       C2239   1.525   1_545  S
C979       C2238   1.525       .  S
C979       F2243   1.385       .  S
C979        F984   1.383       .  S
C979       F2245   1.384       .  S
C982        F986   1.382       .  S
C982        F987   1.382       .  S
C982       F2248   1.385   1_545  S
F983       C2239   1.385   1_545  S
F985       C2239   1.383   1_545  S
F988       C2242   1.385       .  S
C989        C990   1.402       .  A
C989        C994   1.394       .  A
C989        H996   1.092   1_556  S
C990        C991   1.415       .  A
C991        C992   1.411       .  A
C991        C998   1.515       .  S
C992        C993   1.406       .  A
C992        H997   1.091       .  S
C993        C994   1.414       .  A
C994        C995   1.517   1_556  S
C995        F999   1.383       .  S
C995       F1000   1.384       .  S
C998       F1002   1.383       .  S
C998       F1003   1.378       .  S
C998       F1004   1.385       .  S
C1005      C1006   1.405       .  A
C1005      C1010   1.404       .  A
C1005      H1012   1.085   1_556  S
C1006      C1007   1.420       .  A
C1007      C1008   1.409       .  A
C1008      C1009   1.402       .  A
C1009      C1010   1.416       .  A
C1010      C1011   1.517   1_556  S
C1011      F1015   1.384       .  S
C1011      F1016   1.383       .  S
C1011      F1017   1.383       .  S
C1014      F1018   1.383       .  S
C1014      F1020   1.385       .  S
C1021      C1022   1.402       .  A
C1021      C1026   1.399       .  A
C1021      H1028   1.083       .  S
C1022      C1023   1.420       .  A
C1023      C1024   1.404       .  A
C1023      C1030   1.521       .  S
C1024      C1025   1.404       .  A
C1024      H1029   1.083       .  S
C1025      C1026   1.420       .  A
C1026      C1027   1.523       .  S
C1027      F1031   1.385       .  S
C1027      F1032   1.383       .  S
C1027      F1033   1.383       .  S
C1030      F1034   1.383       .  S
C1030      F1035   1.383       .  S
C1030      F1036   1.385       .  S
C1037      C1038   1.404       .  A
C1037      C1042   1.404       .  A
C1037      H1044   1.082       .  S
C1038      C1039   1.424       .  A
C1039      C1040   1.410       .  A
C1039      C3566   1.520       .  S
C1040      C1041   1.402       .  A
C1040      H1045   1.083       .  S
C1041      C1042   1.418       .  A
C1042      C1043   1.519       .  S
C1043      F1047   1.385       .  S
C1043      F1048   1.383       .  S
C1043      F1049   1.382       .  S
C1046      C3559   1.516   1_455  S
C1046      F1050   1.383       .  S
C1046      F1051   1.382       .  S
C1046      F1052   1.384       .  S
C1053      C1054   1.395       .  A
C1053      C1058   1.406       .  A
C1053      H1060   1.084       .  S
C1054      C1055   1.412       .  A
C1055      C1056   1.401       .  A
C1055      C1062   1.514       .  S
C1056      C1057   1.406       .  A
C1056      H1061   1.083       .  S
C1057      C1058   1.433       .  A
C1058      C1059   1.524       .  S
C1059      F1063   1.385       .  S
C1059      F1064   1.384       .  S
C1059      F1065   1.383       .  S
C1062      F1066   1.382       .  S
C1062      F1067   1.384       .  S
C1062      F1068   1.385       .  S
C1069      C1070   1.407       .  A
C1069      C1074   1.401       .  A
C1069      H3596   1.083       .  S
C1070      C1071   1.424       .  A
C1071      C1072   1.399       .  A
C1071      C1078   1.521       .  S
C1072      C1073   1.399       .  A
C1072      H1077   1.084       .  S
C1073      C1074   1.413       .  A
C1074      C3595   1.518       .  S
C1075      C3594   1.522       .  S
C1075      F1079   1.385       .  S
C1075      F3600   1.383       .  S
C1075      F1081   1.383       .  S
H1076      C3589   1.083       .  S
C1078      F1082   1.385       .  S
C1078      F1083   1.382       .  S
C1078      F1084   1.378       .  S
F1080      C3595   1.380       .  S
C1085      C1086   1.408       .  A
C1085      C1090   1.415       .  A
C1085      H1092   1.082   1_545  S
C1086      C1087   1.425       .  A
C1087      C1088   1.406       .  A
C1087      C2354   1.521       .  S
C1088      C1089   1.404       .  A
C1088      H1093   1.082       .  S
C1089      C1090   1.420       .  A
C1090      C1091   1.518       .  S
C1091      F1095   1.385   1_545  S
C1091      F1096   1.383       .  S
C1091      F1097   1.383       .  S
C1094      C2347   1.522       .  S
C1094      F1098   1.385       .  S
C1094      F2359   1.382       .  S
C1094      F2360   1.383       .  S
F1099      C2354   1.381       .  S
F1100      C2354   1.383       .  S
C1101      C1102   1.403       .  A
C1101      C1106   1.408       .  A
C1101      H1108   1.082       .  S
C1102      C1103   1.411       .  A
C1103      C1104   1.405       .  A
C1103      C1110   1.521       .  S
C1104      C1105   1.415       .  A
C1104      H1109   1.082   1_545  S
C1105      C1106   1.424       .  A
C1106      C1107   1.520       .  S
C1107      F1111   1.385       .  S
C1107      F1112   1.383       .  S
C1107      F2373   1.380       .  S
C1110      F1114   1.383       .  S
C1110      F1115   1.383       .  S
C1110      F1116   1.385   1_545  S
F1113      C2367   1.381       .  S
C1117      C1118   1.410       .  A
C1117      C1122   1.414       .  A
C1117      H1124   1.085       .  S
C1118      C1119   1.426       .  A
C1119      C1120   1.406       .  A
C1119      C1126   1.523       .  S
C1120      C1121   1.399       .  A
C1120      H1125   1.085       .  S
C1121      C1122   1.416       .  A
C1122      C2383   1.518       .  S
C1123      C2382   1.516   1_545  S
C1123      F1127   1.384       .  S
C1123      F1128   1.383   1_545  S
C1123      F1129   1.383       .  S
C1126      F1130   1.383       .  S
C1126      F1131   1.383       .  S
C1126      F1132   1.385       .  S
C1133      C1134   1.408       .  A
C1133      C1138   1.407       .  A
C1133      H1140   1.083       .  S
C1134      C1135   1.423       .  A
C1135      C1136   1.409       .  A
C1135      C1142   1.520       .  S
C1136      C1137   1.403       .  A
C1136      H2401   1.083       .  S
C1137      C1138   1.417       .  A
C1138      C1139   1.519       .  S
C1139      F1143   1.385       .  S
C1139      F1144   1.382       .  S
C1139      F1145   1.384       .  S
H1141      C2396   1.083       .  S
C1142      F1146   1.383       .  S
C1142      F2407   1.384       .  S
C1142      F2408   1.385       .  S
F1147      C2402   1.383       .  S
F1148      C2402   1.385   1_545  S
C1149      C1150   1.401       .  A
C1149      C1154   1.397       .  A
C1149      H1156   1.086       .  S
C1150      C1151   1.416       .  A
C1151      C1152   1.405       .  A
C1151      C1158   1.518       .  S
C1152      C1153   1.401       .  A
C1152      H1157   1.084       .  S
C1153      C1154   1.413       .  A
C1154      C1155   1.516       .  S
C1155      F1159   1.384       .  S
C1155      F1160   1.383       .  S
C1155      F1161   1.384       .  S
C1158      F1162   1.383       .  S
C1158      F1163   1.382       .  S
C1158      F1164   1.385       .  S
C1165      C1166   1.407       .  A
C1165      C1170   1.407       .  A
C1165      H1172   1.082       .  S
C1166      C1167   1.425       .  A
C1167      C1168   1.412       .  A
C1167      C1174   1.519       .  S
C1168      C1169   1.403       .  A
C1168      H1173   1.083       .  S
C1169      C1170   1.420       .  A
C1170      C1171   1.521       .  S
C1171      F1175   1.385       .  S
C1171      F1176   1.384       .  S
C1171      F1177   1.382       .  S
C1174      F1178   1.384       .  S
C1174      F1179   1.382       .  S
C1174      F1180   1.385       .  S
C1181      C1182   1.406       .  A
C1181      C1186   1.403       .  A
C1181      H1188   1.084       .  S
C1182      C1183   1.435       .  A
C1183      C1184   1.418       .  A
C1183      C1190   1.523       .  S
C1184      C1185   1.402       .  A
C1184      H1189   1.083       .  S
C1185      C1186   1.416       .  A
C1186      C1187   1.510       .  S
C1187      F1191   1.382       .  S
C1187      F1192   1.379       .  S
C1187      F1193   1.383       .  S
C1190      F1194   1.380       .  S
C1190      F1195   1.383       .  S
C1190      F1196   1.385       .  S
C1197      C1198   1.402       .  A
C1197      C1202   1.403       .  A
C1197      H1204   1.083       .  S
C1198      C1199   1.415       .  A
C1199      C1200   1.406       .  A
C1199      C1206   1.519       .  S
C1200      C1201   1.409       .  A
C1200      H1205   1.082       .  S
C1201      C1202   1.424       .  A
C1202      C1203   1.524       .  S
C1203      F1207   1.384       .  S
C1203      F1208   1.382       .  S
C1203      F1209   1.385       .  S
C1206      F1210   1.385       .  S
C1206      F1211   1.383       .  S
C1206      F1212   1.382       .  S
C1213      C1214   1.413       .  A
C1213      C1218   1.408       .  A
C1213      H1220   1.082       .  S
C1214      C1215   1.431       .  A
C1215      C1216   1.414       .  A
C1215      C1222   1.521       .  S
C1216      C1217   1.400       .  A
C1216      H1221   1.083       .  S
C1217      C1218   1.411       .  A
C1218      C1219   1.519       .  S
C1219      F1223   1.384       .  S
C1219      F1224   1.379       .  S
C1219      F1225   1.383       .  S
C1222      F1226   1.384       .  S
C1222      F1227   1.383       .  S
C1222      F1228   1.385       .  S
C1229      C1230   1.406       .  A
C1229      C1234   1.399       .  A
C1229      H1236   1.085       .  S
C1230      C1231   1.423       .  A
C1231      C1232   1.417       .  A
C1231      C1238   1.518       .  S
C1232      C1233   1.406       .  A
C1232      H1237   1.083       .  S
C1233      C1234   1.416       .  A
C1234      C1235   1.518       .  S
C1235      F1239   1.385       .  S
C1235      F1240   1.383       .  S
C1235      F1241   1.384       .  S
C1238      F1242   1.376       .  S
C1238      F1243   1.383       .  S
C1238      F1244   1.385       .  S
C1245      C1246   1.404       .  A
C1245      C1250   1.404       .  A
C1245      H1252   1.084       .  S
C1246      C1247   1.420       .  A
C1247      C1248   1.409       .  A
C1247      C1254   1.511       .  S
C1248      C1249   1.400       .  A
C1248      H1253   1.083       .  S
C1249      C1250   1.417       .  A
C1250      C1251   1.519       .  S
C1251      F1255   1.383       .  S
C1251      F1256   1.382       .  S
C1251      F1257   1.383       .  S
C1254      F1258   1.382       .  S
C1254      F1259   1.382       .  S
C1254      F1260   1.385       .  S
Fe1261     O1277   2.045       .  S
Fe1261     O1267   2.050       .  S
Fe1261     O1274   2.058       .  S
Fe1261     O1266   2.038       .  S
Fe1261     O1272   1.968       .  S
Fe1262     O1265   2.077       .  S
Fe1262     O1269   2.075       .  S
Fe1262     O1273   2.092       .  S
Fe1262     O1278   2.063       .  S
Fe1262     O1272   1.987       .  S
Fe1263     O1281   2.076       .  S
Fe1263     O1268   2.096       .  S
Fe1263     O1275   2.107       .  S
Fe1263     O1264   2.094       .  S
Fe1263     O1272   1.987       .  S
O1264      C1271   1.271       .  A
O1265      C1279   1.272       .  A
O1266      C1271   1.263       .  A
O1267      C1270   1.269       .  A
O1268      C1280   1.280       .  A
O1269      C1282   1.268       .  A
C1270      O1275   1.275       .  A
C1270      C1860   1.497       .  S
C1271      C1876   1.482       .  S
O1273      C1276   1.272       .  A
O1274      C1276   1.265       .  A
C1276      C1847   1.481       .  S
O1277      C1282   1.265       .  A
O1278      C1280   1.268       .  A
C1279      O1281   1.269       .  A
C1279      C1796   1.503       .  S
C1280      C1812   1.505       .  S
C1282      C1828   1.486       .  S
Fe1283     O1299   2.048       .  S
Fe1283     O1289   2.045       .  S
Fe1283     O1296   2.050       .  S
Fe1283     O1288   2.050       .  S
Fe1283     O1294   1.971       .  S
Fe1284     O1287   2.066       .  S
Fe1284     O1291   2.089       .  S
Fe1284     O1295   2.078       .  S
Fe1284     O1300   2.074       .  S
Fe1285     O1303   2.091       .  S
Fe1285     O1290   2.049       .  S
Fe1285     O1297   2.063       .  S
Fe1285     O1286   2.103       .  S
Fe1285     O1294   1.986       .  S
O1286      C1293   1.274       .  A
O1287      C1301   1.269       .  A
O1288      C1293   1.266       .  A
O1289      C1292   1.266       .  A
C1292      O1297   1.265       .  A
C1292      C1780   1.473       .  S
C1293      C1863   1.496       .  S
O1296      C1298   1.266       .  A
C1298      C1767   1.483       .  S
O1299      C1304   1.265       .  A
O1300      C1302   1.268       .  A
C1301      C1716   1.499       .  S
C1302      C1735   1.497       .  S
C1304      C1751   1.484       .  S
Fe1305     O1321   2.022       .  S
Fe1305     O1311   2.057       .  S
Fe1305     O1318   2.061       .  S
Fe1305     O1310   2.030       .  S
Fe1305     O1316   1.959       .  S
Fe1306     O1309   2.068       .  S
Fe1306     O3833   2.076       .  S
Fe1306     O3837   2.070       .  S
Fe1306     O1322   2.066       .  S
Fe1306     O3836   1.961       .  S
Fe1307     O1325   2.055       .  S
Fe1307     O1312   2.054       .  S
Fe1307     O1319   2.071       .  S
Fe1307     O1308   2.073       .  S
Fe1307     O1316   1.981       .  S
O1308      C1315   1.267       .  A
O1309      C1323   1.272       .  A
O1310      C1315   1.263       .  A
O1311      C1314   1.267       .  A
O1312      C3844   1.269       .  A
O1313     Fe3826   2.071       .  S
O1313      C1326   1.269       .  A
C1314      O1319   1.268       .  A
C1314      C1879   1.471       .  S
C1315      C1783   1.467       .  S
O1316     Fe3826   1.977       .  S
O1317     Fe3826   2.080       .  S
O1317      C1320   1.271       .  A
O1318      C1320   1.267       .  A
C1320      C1684   1.488       .  S
O1321      C1326   1.258       .  A
O1322      C1324   1.267       .  A
C1323      O3845   1.266       .  A
C1323      C1668   1.480       .  S
C1324      O3832   1.271       .  A
C1324      C1655   1.498       .  S
O1325      C3843   1.266       .  A
C1326      C1700   1.478       .  S
Fe1327     O1343   2.054       .  S
Fe1327     O1333   2.046       .  S
Fe1327     O1340   2.054       .  S
Fe1327     O1332   2.048   1_554  S
Fe1327     O1338   1.953   1_554  S
Fe1328     O1961   2.074   1_554  S
Fe1328     O1335   2.078       .  S
Fe1328     O1339   2.107       .  S
Fe1328     O1974   2.068   1_554  S
Fe1328     O1338   1.960   1_554  S
Fe1329     O1347   2.062       .  S
Fe1329     O1334   2.078       .  S
Fe1329     O1341   2.101       .  S
Fe1329     O1330   2.071       .  S
Fe1329     O1968   1.971       .  S
O1330      C1337   1.268       .  A
O1331     Fe1958   2.068       .  S
O1331      C1345   1.275       .  A
O1332      C1967   1.269       .  A
O1333      C1966   1.265   1_554  A
O1334      C1346   1.272       .  A
O1335      C1348   1.268       .  A
C1336      O1963   1.264       .  A
C1336      O1341   1.274       .  A
C1336      C1636   1.487       .  S
C1337      O1962   1.268       .  A
C1337      C1620   1.470       .  S
O1338     Fe1959   1.970       .  S
O1339      C1342   1.276       .  A
O1340      C1342   1.266       .  A
C1342      C1815   1.485       .  S
O1343      C1348   1.267       .  A
O1344     Fe1958   2.076       .  S
O1344      C1346   1.271       .  A
C1345      O1347   1.270       .  A
C1345      C1604   1.486       .  S
C1346      C1588   1.493       .  S
C1348      C1719   1.490       .  S
Fe1349     O1365   2.053       .  S
Fe1349     O1355   2.051       .  S
Fe1349     O1362   2.045       .  S
Fe1349     O1354   2.056       .  S
Fe1349     O1360   1.970       .  S
Fe1350     O1983   2.068   1_554  S
Fe1350     O1357   2.068       .  S
Fe1350     O1361   2.074       .  S
Fe1350     O1996   2.056   1_554  S
Fe1350     O1360   1.981       .  S
Fe1351     O1369   2.083       .  S
Fe1351     O1356   2.059       .  S
Fe1351     O1363   2.073       .  S
Fe1351     O1352   2.086       .  S
Fe1351     O1990   1.979       .  S
O1352      C1359   1.272       .  A
O1353     Fe1980   2.064       .  S
O1353      C1367   1.265       .  A
O1354      C1989   1.267   1_554  A
O1355      C1988   1.268   1_554  A
O1356      C1368   1.269       .  A
O1357      C1370   1.269       .  A
C1358      O1985   1.266       .  A
C1358      O1363   1.270       .  A
C1358      C1572   1.472       .  S
C1359      O1984   1.265       .  A
C1359      C1639   1.481       .  S
O1360     Fe1981   1.986   1_554  S
O1361      C1364   1.267       .  A
O1362      C1364   1.264       .  A
C1364      C1732   1.474       .  S
O1365      C1370   1.267       .  A
O1366     Fe1980   2.067       .  S
O1366      C1368   1.272       .  A
C1367      O1369   1.273       .  A
C1367      C1540   1.507       .  S
C1368      C1556   1.488       .  S
C1370      C1671   1.474       .  S
Fe1371     O1387   2.048       .  S
Fe1371     O1377   2.057       .  S
Fe1371     O1384   2.058       .  S
Fe1371     O1376   2.041       .  S
Fe1371     O1382   1.970       .  S
Fe1372     O2005   2.052   1_554  S
Fe1372     O1379   2.099       .  S
Fe1372     O1383   2.061       .  S
Fe1372     O2018   2.092   1_554  S
Fe1372     O1382   1.977       .  S
Fe1373     O1391   2.077       .  S
Fe1373     O1378   2.036       .  S
Fe1373     O1385   2.049       .  S
Fe1373     O1374   2.088       .  S
Fe1373     O2012   1.981       .  S
O1374      C1381   1.269       .  A
O1375     Fe2002   2.049       .  S
O1375      C1389   1.264       .  A
O1376      C2011   1.265   1_554  A
O1377      C2010   1.269   1_554  A
O1378      C1390   1.261       .  A
O1379      C1392   1.274       .  A
C1380      O2007   1.270       .  A
C1380      O1385   1.265       .  A
C1380      C1623   1.467       .  S
C1381      O2006   1.263       .  A
C1381      C1575   1.480       .  S
O1382     Fe2003   1.987   1_554  S
O1383      C1386   1.266       .  A
O1384      C1386   1.266       .  A
C1386      C1652   1.474       .  S
O1387      C1392   1.264       .  A
O1388     Fe2002   2.102       .  S
O1388      C1390   1.278       .  A
C1389      O1391   1.271       .  A
C1389      C1508   1.484       .  S
C1390      C1527   1.502       .  S
C1392      C1799   1.487       .  S
Fe1393     O1409   2.041       .  S
Fe1393     O1399   2.046       .  S
Fe1393     O1406   2.046       .  S
Fe1393     O1398   2.045       .  S
Fe1393     O1404   1.970       .  S
Fe1394     O1397   2.067       .  S
Fe1394     O1401   2.077       .  S
Fe1394     O1405   2.080       .  S
Fe1394     O1410   2.064       .  S
Fe1394     O1404   1.982       .  S
Fe1395     O1413   2.064       .  S
Fe1395     O1400   2.076       .  S
Fe1395     O1407   2.102       .  S
Fe1395     O1396   2.075       .  S
Fe1395     O1404   1.987       .  S
O1396      C1403   1.269       .  A
O1397      C1411   1.268       .  A
O1398      C1403   1.267       .  A
O1399      C1402   1.264       .  A
O1400      C1412   1.270       .  A
O1401      C1414   1.270       .  A
C1402      O1407   1.273       .  A
C1402      C1492   1.487       .  S
O1405      C1408   1.269       .  A
O1406      C1408   1.262       .  A
C1408      C1559   1.480       .  S
O1409      C1414   1.267       .  A
O1410      C1412   1.270       .  A
C1411      O1413   1.271       .  A
C1411      C1831   1.491       .  S
C1412      C1764   1.491       .  S
C1414      C1511   1.478       .  S
Fe1415     O1431   2.044       .  S
Fe1415     O1421   2.051       .  S
Fe1415     O1428   2.062       .  S
Fe1415     O1420   2.053       .  S
Fe1415     O1426   1.944       .  S
Fe1416     O1419   2.057       .  S
Fe1416     O1423   2.106       .  S
Fe1416     O1427   2.073       .  S
Fe1416     O1432   2.094       .  S
Fe1416     O1426   1.950       .  S
Fe1417     O1435   2.094       .  S
Fe1417     O1422   2.055       .  S
Fe1417     O1429   2.068       .  S
Fe1417     O1418   2.106       .  S
Fe1417     O1426   1.961       .  S
O1418      C1425   1.275       .  A
O1419      C1433   1.265       .  A
O1420      C1425   1.271       .  A
O1421      C1424   1.267       .  A
O1422      C1434   1.268       .  A
O1423      C1436   1.279       .  A
C1424      O1429   1.268       .  A
C1425      C4015   1.499   1_455  S
O1427      C1430   1.267       .  A
O1428      C1430   1.265       .  A
C1430      C1524   1.478       .  S
O1431      C1436   1.267       .  A
O1432      C1434   1.279       .  A
C1433      O1435   1.274       .  A
C1433      C1748   1.499       .  S
C1434      C1687   1.502       .  S
C1436      C1607   1.491       .  S
Fe1437     O1453   2.054       .  S
Fe1437     O1443   2.055       .  S
Fe1437     O1450   2.057       .  S
Fe1437     O1442   2.052       .  S
Fe1437     O1448   1.950       .  S
Fe1438     O1441   2.058       .  S
Fe1438     O1445   2.085       .  S
Fe1438     O1449   2.084       .  S
Fe1438     O1454   2.083       .  S
Fe1438     O1448   1.961       .  S
Fe1439     O1457   2.040       .  S
Fe1439     O1444   2.067       .  S
Fe1439     O1451   2.082       .  S
Fe1439     O1440   2.054       .  S
Fe1439     O1448   1.966       .  S
O1440      C1447   1.265       .  A
O1441      C1455   1.272       .  A
O1442      C1447   1.266       .  A
O1443      C1446   1.271   1_455  A
O1444      C1456   1.270       .  A
O1445      C1458   1.267       .  A
C1446      O1451   1.269   1_655  A
C1446      C3999   1.489       .  S
C1447      C1463   1.464       .  S
O1449      C1452   1.276       .  A
O1450      C1452   1.270       .  A
C1452      C1591   1.479       .  S
O1453      C1458   1.263       .  A
O1454      C1456   1.270       .  A
C1455      O1457   1.266       .  A
C1455      C1703   1.468       .  S
C1456      C1844   1.509       .  S
C1458      C1543   1.490       .  S
C1459      C1460   1.400       .  A
C1459      C1464   1.387       .  A
C1460      C1461   1.412       .  A
C1461      C1462   1.410       .  A
C1461      C1468   1.514       .  S
C1462      C1463   1.406       .  A
C1462      H1467   1.084       .  S
C1463      C1464   1.416       .  A
C1464      C1465   1.519       .  S
C1465      F1469   1.384   1_455  S
C1465      F1470   1.375       .  S
C1465      F1471   1.383   1_455  S
C1468      F1472   1.383       .  S
C1468      F1473   1.383       .  S
C1468      F1474   1.384       .  S
C1475      C1476   1.404       .  A
C1475      C1480   1.413       .  A
C1475      H1482   1.083       .  S
C1476      C1477   1.414       .  A
C1477      C1478   1.397       .  A
C1477      C1484   1.517       .  S
C1478      C1479   1.405       .  A
C1478      H1483   1.085       .  S
C1479      C3966   1.486       .  S
C1479      C1480   1.422       .  A
C1480      C4001   1.520       .  S
C1481      C4000   1.515       .  S
C1481      F1485   1.385       .  S
C1481      F1486   1.381       .  S
C1481      F1487   1.382       .  S
C1484      F1488   1.383       .  S
C1484      F1489   1.384       .  S
C1484      F1490   1.384       .  S
C1491      C1492   1.402       .  A
C1491      C1496   1.417       .  A
C1491      H1498   1.083       .  S
C1492      C1493   1.417       .  A
C1493      C1494   1.403       .  A
C1493      C1500   1.517       .  S
C1494      C1495   1.406       .  A
C1494      H1499   1.084       .  S
C1495      C3945   1.502       .  S
C1495      C1496   1.429       .  A
C1496      C4017   1.519       .  S
C1497      C4016   1.518       .  S
C1497      F4021   1.385       .  S
C1497      F1502   1.384       .  S
C1497      F1503   1.380   1_655  S
C1500      F1504   1.381       .  S
C1500      F1505   1.383       .  S
C1500      F1506   1.384       .  S
F1501      C4017   1.385       .  S
C1507      C1508   1.407       .  A
C1507      C1512   1.409       .  A
C1507      H1514   1.083       .  S
C1508      C1509   1.422       .  A
C1509      C1510   1.402       .  A
C1509      C1516   1.523       .  S
C1510      C1511   1.402       .  A
C1510      H1515   1.083       .  S
C1511      C1512   1.417       .  A
C1512      C1513   1.520       .  S
C1513      F1517   1.385       .  S
C1513      F1518   1.382       .  S
C1513      F1519   1.382       .  S
C1516      F1520   1.384       .  S
C1516      F2151   1.383       .  S
C1516      F1522   1.385       .  S
F1521      C2146   1.383   1_554  S
C1523      C1524   1.399       .  A
C1523      C4048   1.410   1_455  A
C1523      H1530   1.083       .  S
C1524      C1525   1.414       .  A
C1525      C4046   1.402   1_455  A
C1525      C1532   1.514       .  S
C1526      C4045   1.404       .  A
C1526      C1527   1.407       .  A
C1526      H1531   1.083       .  S
C1527      C1528   1.436       .  A
C1528      C4043   1.409       .  A
C1528      C1529   1.524       .  S
C1529      F1533   1.385       .  S
C1529      F1534   1.384       .  S
C1529      F1535   1.384       .  S
C1532      F1536   1.382       .  S
C1532      F1537   1.383       .  S
C1532      F1538   1.384       .  S
C1539      C1540   1.410       .  A
C1539      C1544   1.410       .  A
C1539      H1546   1.082       .  S
C1540      C1541   1.431       .  A
C1541      C4062   1.412       .  A
C1541      C1548   1.522       .  S
C1542      C4061   1.409   1_455  A
C1542      C1543   1.402       .  A
C1542      H1547   1.083       .  S
C1543      C4064   1.417       .  A
C1544      C4063   1.416       .  A
C1544      C1545   1.518       .  S
C1545      F1549   1.384       .  S
C1545      F4070   1.382       .  S
C1545      F4071   1.382       .  S
C1548      F1552   1.384       .  S
C1548      F2183   1.384       .  S
C1548      F4074   1.385       .  S
F1550      C4065   1.381       .  S
F1551      C4065   1.383       .  S
F1553      C2178   1.384   1_554  S
F1554      C4068   1.385   1_455  S
C1555      C1556   1.407       .  A
C1555      H1562   1.082       .  S
C1556      C1557   1.423       .  A
C1557      C1564   1.518       .  S
C1558      C1559   1.399       .  A
C1558      H1563   1.083       .  S
C1559      C1560   1.413       .  A
C1560      C1561   1.519       .  S
C1561      F1565   1.384       .  S
C1561      F1566   1.382       .  S
C1561      F1567   1.384       .  S
C1564      F1568   1.382       .  S
C1564      F1569   1.384       .  S
C1564      F1570   1.385       .  S
C1571      C1572   1.404       .  A
C1571      C1576   1.411       .  A
C1571      H1578   1.084       .  S
C1572      C1573   1.414       .  A
C1573      C1574   1.400       .  A
C1573      C1580   1.519       .  S
C1574      C1575   1.405       .  A
C1574      H1579   1.084       .  S
C1575      C1576   1.418       .  A
C1576      C1577   1.518       .  S
C1577      F1581   1.385       .  S
C1577      F1582   1.383       .  S
C1577      F2213   1.384       .  S
C1580      F1584   1.383       .  S
C1580      F1585   1.383       .  S
C1580      F1586   1.385       .  S
F1583      C2207   1.384       .  S
C1587      C1588   1.407       .  A
C1587      C1592   1.407       .  A
C1587      H1594   1.083       .  S
C1588      C1589   1.421       .  A
C1589      C1590   1.408       .  A
C1589      C1596   1.510       .  S
C1590      C1591   1.400       .  A
C1590      H1595   1.083       .  S
C1591      C1592   1.417       .  A
C1592      C1593   1.521       .  S
C1593      F1597   1.384       .  S
C1593      F1598   1.384       .  S
C1593      F1599   1.382       .  S
C1596      F1600   1.380       .  S
C1596      F1601   1.381       .  S
C1596      F1602   1.385       .  S
C1603      C1604   1.404       .  A
C1603      C1608   1.400       .  A
C1603      H1610   1.083       .  S
C1604      C1605   1.420       .  A
C1605      C1612   1.520       .  S
C1606      C1607   1.406       .  A
C1606      H1611   1.083       .  S
C1609      F1614   1.379       .  S
C1612      F1616   1.383       .  S
C1612      F1617   1.383       .  S
C1619      C1620   1.402       .  A
C1619      C1624   1.391       .  A
C1619      H1626   1.094       .  S
C1620      C1621   1.415       .  A
C1621      C1622   1.408       .  A
C1621      C1628   1.516       .  S
C1622      C1623   1.404       .  A
C1622      H1627   1.092       .  S
C1623      C1624   1.412       .  A
C1624      C1625   1.518       .  S
C1625      F1629   1.382       .  S
C1625      F1630   1.384       .  S
C1625      F2261   1.383       .  S
C1628      F1632   1.382       .  S
C1628      F1633   1.378       .  S
C1628      F1634   1.385       .  S
F1631      C2255   1.383       .  S
C1635      C1636   1.406       .  A
C1635      C1640   1.405       .  A
C1635      H1642   1.084       .  S
C1636      C1637   1.420       .  A
C1637      C1638   1.409       .  A
C1637      C2274   1.513       .  S
C1638      C1639   1.402       .  A
C1638      H2273   1.083       .  S
C1639      C1640   1.416       .  A
C1640      C1641   1.516       .  S
C1641      F1645   1.385       .  S
C1641      F1646   1.383       .  S
C1641      F1647   1.383       .  S
H1643      C2268   1.083       .  S
C1644      C2267   1.514       .  S
C1644      F1648   1.383       .  S
C1644      F2279   1.382       .  S
C1644      F1650   1.384       .  S
F1649      C2274   1.383       .  S
C1651      C1652   1.398       .  A
C1651      C1656   1.407       .  A
C1651      H1658   1.084       .  S
C1652      C1653   1.414       .  A
C1653      C1654   1.405       .  A
C1653      C1660   1.521       .  S
C1654      C1655   1.410       .  A
C1654      H1659   1.082       .  S
C1655      C1656   1.430       .  A
C1656      C1657   1.523       .  S
C1657      F1661   1.385       .  S
C1657      F1662   1.384       .  S
C1657      F1663   1.383       .  S
C1660      F1664   1.382       .  S
C1660      F1665   1.384       .  S
C1660      F1666   1.385       .  S
C1667      C1668   1.403       .  A
C1667      C1672   1.401       .  A
C1667      H1674   1.085       .  S
C1668      C1669   1.423       .  A
C1669      C1670   1.405       .  A
C1669      C4196   1.519       .  S
C1670      C1671   1.400       .  A
C1670      H1675   1.084       .  S
C1671      C1672   1.417       .  A
C1672      C1673   1.517       .  S
C1673      F1677   1.385       .  S
C1673      F1678   1.383       .  S
C1673      F1679   1.383       .  S
C1676      C4189   1.521   1_455  S
C1676      F1680   1.383       .  S
C1676      F1681   1.383       .  S
C1676      F1682   1.385       .  S
C1683      C1684   1.402       .  A
C1683      C1688   1.412       .  A
C1683      H1690   1.083       .  S
C1684      C1685   1.417       .  A
C1685      C1686   1.405       .  A
C1685      C1692   1.517       .  S
C1686      C1687   1.407       .  A
C1686      H1691   1.082       .  S
C1687      C1688   1.430       .  A
C1688      C1689   1.521       .  S
C1689      F1693   1.385   1_455  S
C1689      F1694   1.383       .  S
C1689      F1695   1.384   1_455  S
C1692      F1696   1.382       .  S
C1692      F1697   1.383       .  S
C1692      F1698   1.385       .  S
C1699      C1700   1.405       .  A
C1699      C1704   1.403       .  A
C1699      H4226   1.083       .  S
C1700      C1701   1.424       .  A
C1701      C1702   1.395       .  A
C1701      C1708   1.522       .  S
C1702      C1703   1.397       .  A
C1702      H1707   1.083       .  S
C1703      C1704   1.417       .  A
C1704      C4225   1.519       .  S
C1705      C4224   1.520       .  S
C1705      F1709   1.385       .  S
C1705      F4230   1.381       .  S
C1705      F1711   1.383       .  S
H1706      C4219   1.083       .  S
C1708      F1712   1.385       .  S
C1708      F1713   1.383       .  S
C1708      F1714   1.379       .  S
F1710      C4225   1.382   1_655  S
C1715      C1716   1.409       .  A
C1715      C1720   1.412       .  A
C1715      H1722   1.083       .  S
C1716      C1717   1.426       .  A
C1717      C1718   1.405       .  A
C1718      C1719   1.401       .  A
C1718      H1723   1.083       .  S
C1719      C1720   1.420       .  A
C1720      C1721   1.519       .  S
C1721      F1725   1.385       .  S
C1721      F1726   1.382       .  S
C1721      F1727   1.382       .  S
C1724      F1728   1.385       .  S
C1731      C1732   1.400       .  A
C1731      C1736   1.406       .  A
C1731      H1738   1.082       .  S
C1732      C1733   1.411       .  A
C1733      C1734   1.406       .  A
C1733      C1740   1.520       .  S
C1734      C1735   1.413       .  A
C1734      H1739   1.082       .  S
C1735      C1736   1.425       .  A
C1736      C1737   1.520       .  S
C1737      F1741   1.385       .  S
C1737      F1742   1.383       .  S
C1740      F1744   1.383       .  S
C1740      F1745   1.382       .  S
C1740      F1746   1.384       .  S
C1747      C1748   1.409       .  A
C1747      C1752   1.412       .  A
C1747      H1754   1.084       .  S
C1748      C1749   1.429       .  A
C1749      C1750   1.408       .  A
C1749      C1756   1.523       .  S
C1750      C1751   1.399       .  A
C1750      H1755   1.085       .  S
C1751      C1752   1.415       .  A
C1753      F1757   1.384       .  S
C1753      F1758   1.384       .  S
C1753      F1759   1.382       .  S
C1756      F1760   1.384       .  S
C1756      F1761   1.383       .  S
C1756      F1762   1.385       .  S
C1763      C1764   1.406       .  A
C1763      C1768   1.403       .  A
C1763      H1770   1.084       .  S
C1764      C1765   1.423       .  A
C1765      C1766   1.412       .  A
C1765      C1772   1.519       .  S
C1766      C1767   1.404       .  A
C1767      C1768   1.416       .  A
C1768      C1769   1.517       .  S
C1769      F1773   1.385       .  S
C1769      F1774   1.382       .  S
C1769      F1775   1.384       .  S
C1772      F1776   1.382       .  S
C1779      C1780   1.403       .  A
C1779      C1784   1.396       .  A
C1779      H1786   1.085       .  S
C1780      C1781   1.418       .  A
C1781      C1782   1.408       .  A
C1781      C1788   1.517       .  S
C1782      C1783   1.402       .  A
C1782      H1787   1.083       .  S
C1783      C1784   1.413       .  A
C1784      C1785   1.518       .  S
C1785      F1789   1.383       .  S
C1785      F1790   1.383       .  S
C1785      F1791   1.384       .  S
C1788      F1792   1.383       .  S
C1788      F1793   1.384       .  S
C1788      F1794   1.384       .  S
C1795      C1796   1.408       .  A
C1795      C1800   1.408       .  A
C1795      H1802   1.083       .  S
C1796      C1797   1.427       .  A
C1797      C1798   1.414       .  A
C1797      C1804   1.519       .  S
C1798      C1799   1.402       .  A
C1798      H1803   1.083       .  S
C1799      C1800   1.417       .  A
C1800      C1801   1.519       .  S
C1801      F1805   1.385       .  S
C1801      F1806   1.384       .  S
C1801      F1807   1.382       .  S
C1804      F1808   1.384       .  S
C1804      F1809   1.382       .  S
C1804      F1810   1.385       .  S
C1811      C1812   1.403       .  A
C1811      C1816   1.403       .  A
C1811      H1818   1.085       .  S
C1812      C1813   1.432       .  A
C1813      C1814   1.416       .  A
C1813      C1820   1.520       .  S
C1814      C1815   1.400       .  A
C1814      H1819   1.084       .  S
C1815      C1816   1.419       .  A
C1816      C1817   1.512       .  S
C1817      F1821   1.382       .  S
C1817      F1822   1.380       .  S
C1817      F1823   1.380       .  S
C1820      F1824   1.381       .  S
C1820      F1825   1.383       .  S
C1820      F1826   1.385       .  S
C1827      C1828   1.404       .  A
C1827      C1832   1.405       .  A
C1827      H1834   1.083       .  S
C1828      C1829   1.419       .  A
C1829      C1830   1.408       .  A
C1829      C1836   1.520       .  S
C1830      C1831   1.407       .  A
C1830      H1835   1.083       .  S
C1831      C1832   1.423       .  A
C1832      C1833   1.523       .  S
C1833      F1837   1.384       .  S
C1833      F1838   1.383       .  S
C1833      F1839   1.385       .  S
C1836      F1840   1.385       .  S
C1836      F1841   1.383       .  S
C1836      F1842   1.383       .  S
C1843      C1844   1.411       .  A
C1843      C1848   1.404       .  A
C1843      H1850   1.084       .  S
C1844      C1845   1.428       .  A
C1845      C1846   1.417       .  A
C1845      C1852   1.519       .  S
C1846      C1847   1.404       .  A
C1846      H1851   1.083       .  S
C1847      C1848   1.416       .  A
C1848      C1849   1.520       .  S
C1849      F1853   1.382       .  S
C1849      F1854   1.383       .  S
C1849      F1855   1.382       .  S
C1852      F1856   1.384       .  S
C1852      F1857   1.383       .  S
C1852      F1858   1.385       .  S
C1859      C1860   1.405       .  A
C1859      C1864   1.400       .  A
C1859      H1866   1.085       .  S
C1860      C1861   1.421       .  A
C1861      C1862   1.421       .  A
C1861      C1868   1.517       .  S
C1862      C1863   1.410       .  A
C1862      H1867   1.083       .  S
C1863      C1864   1.420       .  A
C1864      C1865   1.519       .  S
C1865      F1869   1.385       .  S
C1865      F1870   1.383       .  S
C1865      F1871   1.384       .  S
C1868      F1872   1.377       .  S
C1868      F1873   1.383       .  S
C1868      F1874   1.385       .  S
C1875      C1876   1.402       .  A
C1875      C1880   1.402       .  A
C1875      H1882   1.082       .  S
C1876      C1877   1.419       .  A
C1877      C1878   1.408       .  A
C1877      C1884   1.511       .  S
C1878      C1879   1.400       .  A
C1878      H1883   1.084       .  S
C1879      C1880   1.416       .  A
C1880      C1881   1.517       .  S
C1881      F1885   1.384       .  S
C1881      F1886   1.382       .  S
C1881      F1887   1.383       .  S
C1884      F1888   1.383       .  S
C1884      F1889   1.382       .  S
C1884      F1890   1.385       .  S
Fe1891     O1907   2.032       .  S
Fe1891     O1897   2.059       .  S
Fe1891     O1904   2.059       .  S
Fe1891     O1896   2.031       .  S
Fe1891     O1902   1.966       .  S
Fe1892     O1895   2.081       .  S
Fe1892     O1899   2.089       .  S
Fe1892     O1903   2.094       .  S
Fe1892     O1908   2.069       .  S
Fe1892     O1902   1.986       .  S
Fe1893     O1911   2.078       .  S
Fe1893     O1898   2.078       .  S
Fe1893     O1905   2.095       .  S
Fe1893     O1894   2.094       .  S
Fe1893     O1902   1.983       .  S
O1894      C1901   1.271       .  A
O1895      C1909   1.273       .  A
O1896      C1901   1.262       .  A
O1897      C1900   1.271       .  A
O1898      C1910   1.276       .  A
O1899      C1912   1.271       .  A
C1900      O1905   1.273       .  A
C1900      C2490   1.498       .  S
C1901      C2506   1.486       .  S
O1903      C1906   1.272       .  A
O1904      C1906   1.265       .  A
C1906      C2477   1.482       .  S
O1907      C1912   1.264       .  A
O1908      C1910   1.269       .  A
C1909      O1911   1.270       .  A
C1909      C2426   1.503       .  S
C1910      C2442   1.499       .  S
C1912      C2458   1.487       .  S
Fe1913     O1929   2.039       .  S
Fe1913     O1919   2.041       .  S
Fe1913     O1926   2.045       .  S
Fe1913     O1918   2.045       .  S
Fe1913     O1924   1.966       .  S
Fe1914     O1917   2.063       .  S
Fe1914     O1921   2.090       .  S
Fe1914     O1925   2.074       .  S
Fe1914     O1930   2.079       .  S
Fe1915     O1933   2.093       .  S
Fe1915     O1920   2.040       .  S
Fe1915     O1927   2.062       .  S
Fe1915     O1916   2.108       .  S
Fe1915     O1924   1.986       .  S
O1916      C1923   1.275       .  A
O1917      C1931   1.267       .  A
O1918      C1923   1.265       .  A
O1919      C1922   1.265       .  A
C1922      O1927   1.265       .  A
C1922      C2410   1.467       .  S
C1923      C2493   1.496       .  S
O1926      C1928   1.264       .  A
C1928      C2397   1.481       .  S
O1929      C1934   1.264       .  A
O1930      C1932   1.270       .  A
C1931      C2346   1.499       .  S
C1932      C2365   1.494       .  S
C1934      C2381   1.488       .  S
Fe1935     O1951   2.037       .  S
Fe1935     O1941   2.055       .  S
Fe1935     O1948   2.060       .  S
Fe1935     O1940   2.039       .  S
Fe1935     O1946   1.964       .  S
Fe1936     O1939   2.061       .  S
Fe1936     O4463   2.073       .  S
Fe1936     O4467   2.069       .  S
Fe1936     O1952   2.061       .  S
Fe1936     O4466   1.972       .  S
Fe1937     O1955   2.050       .  S
Fe1937     O1942   2.059       .  S
Fe1937     O1949   2.066       .  S
Fe1937     O1938   2.065       .  S
Fe1937     O1946   1.985       .  S
O1938      C1945   1.266       .  A
O1939      C1953   1.270       .  A
O1940      C1945   1.265       .  A
O1941      C1944   1.268       .  A
O1942      C4474   1.271       .  A
O1943     Fe4456   2.067       .  S
O1943      C1956   1.269       .  A
C1944      O1949   1.267       .  A
C1944      C2509   1.469       .  S
C1945      C2413   1.464       .  S
O1946     Fe4456   1.976       .  S
O1947     Fe4456   2.066       .  S
O1947      C1950   1.267       .  A
O1948      C1950   1.266       .  A
C1950      C2314   1.478       .  S
O1951      C1956   1.261       .  A
O1952      C1954   1.266       .  A
C1953      O4475   1.266       .  A
C1953      C2298   1.481       .  S
C1954      O4462   1.273       .  A
C1954      C2285   1.500       .  S
O1955      C4473   1.264       .  A
C1956      C2330   1.478       .  S
Fe1957     O1973   2.053       .  S
Fe1957     O1963   2.043       .  S
Fe1957     O1970   2.051       .  S
Fe1957     O1962   2.045       .  S
Fe1957     O1968   1.955       .  S
Fe1958     O1965   2.085       .  S
Fe1958     O1969   2.099       .  S
Fe1958     O1968   1.960       .  S
Fe1959     O1977   2.075       .  S
Fe1959     O1964   2.075       .  S
Fe1959     O1971   2.096       .  S
Fe1959     O1960   2.084       .  S
O1960      C1967   1.272       .  A
O1961      C1975   1.276       .  A
O1964      C1976   1.271       .  A
O1965      C1978   1.270       .  A
C1966      O1971   1.272       .  A
C1966      C2266   1.484       .  S
C1967      C2250   1.476       .  S
O1969      C1972   1.275       .  A
O1970      C1972   1.265       .  A
C1972      C2445   1.478       .  S
O1973      C1978   1.266       .  A
O1974      C1976   1.269       .  A
C1975      O1977   1.273       .  A
C1975      C2234   1.491       .  S
C1976      C2218   1.484       .  S
C1978      C2349   1.497       .  S
Fe1979     O1995   2.038       .  S
Fe1979     O1985   2.050       .  S
Fe1979     O1992   2.042       .  S
Fe1979     O1984   2.047       .  S
Fe1979     O1990   1.965       .  S
Fe1980     O1987   2.077       .  S
Fe1980     O1991   2.068       .  S
Fe1980     O1990   1.978       .  S
Fe1981     O1999   2.073       .  S
Fe1981     O1986   2.067       .  S
Fe1981     O1993   2.072       .  S
Fe1981     O1982   2.073       .  S
O1982      C1989   1.268       .  A
O1983      C1997   1.266       .  A
O1986      C1998   1.269       .  A
O1987      C2000   1.272       .  A
C1988      O1993   1.269       .  A
C1988      C2202   1.472       .  S
C1989      C2269   1.474       .  S
O1991      C1994   1.265       .  A
O1992      C1994   1.262       .  A
C1994      C2362   1.472       .  S
O1995      C2000   1.264       .  A
O1996      C1998   1.269       .  A
C1997      O1999   1.271       .  A
C1997      C2170   1.507       .  S
C1998      C2186   1.486       .  S
C2000      C2301   1.474       .  S
Fe2001     O2017   2.041       .  S
Fe2001     O2007   2.056       .  S
Fe2001     O2014   2.063       .  S
Fe2001     O2006   2.032       .  S
Fe2001     O2012   1.960       .  S
Fe2002     O2009   2.114       .  S
Fe2002     O2013   2.060       .  S
Fe2002     O2012   1.970       .  S
Fe2003     O2021   2.070       .  S
Fe2003     O2008   2.047       .  S
Fe2003     O2015   2.059       .  S
Fe2003     O2004   2.080       .  S
O2004      C2011   1.270       .  A
O2005      C2019   1.266       .  A
O2008      C2020   1.262       .  A
O2009      C2022   1.277       .  A
C2010      O2015   1.264       .  A
C2010      C2253   1.476       .  S
C2011      C2205   1.475       .  S
O2013      C2016   1.266       .  A
O2014      C2016   1.268       .  A
C2016      C2282   1.475       .  S
O2017      C2022   1.262       .  A
O2018      C2020   1.275       .  A
C2019      O2021   1.271       .  A
C2019      C2138   1.485       .  S
C2020      C2157   1.503       .  S
C2022      C2429   1.493       .  S
Fe2023     O2039   2.040       .  S
Fe2023     O2029   2.043       .  S
Fe2023     O2036   2.043       .  S
Fe2023     O2028   2.041       .  S
Fe2023     O2034   1.966       .  S
Fe2024     O2027   2.068       .  S
Fe2024     O2031   2.078       .  S
Fe2024     O2035   2.077       .  S
Fe2024     O2040   2.064       .  S
Fe2024     O2034   1.981       .  S
Fe2025     O2043   2.062       .  S
Fe2025     O2030   2.068       .  S
Fe2025     O2037   2.089       .  S
Fe2025     O2026   2.073       .  S
Fe2025     O2034   1.988       .  S
O2026      C2033   1.268       .  A
O2027      C2041   1.269       .  A
O2028      C2033   1.266       .  A
O2029      C2032   1.264       .  A
O2030      C2042   1.268       .  A
O2031      C2044   1.270       .  A
C2032      O2037   1.270       .  A
C2032      C2122   1.480       .  S
O2035      C2038   1.269       .  A
O2036      C2038   1.262       .  A
C2038      C2189   1.479       .  S
O2039      C2044   1.267       .  A
O2040      C2042   1.270       .  A
C2041      O2043   1.270       .  A
C2041      C2461   1.487       .  S
C2042      C2394   1.487       .  S
C2044      C2141   1.482       .  S
Fe2045     O2061   2.037       .  S
Fe2045     O2051   2.048       .  S
Fe2045     O2058   2.058       .  S
Fe2045     O2050   2.047       .  S
Fe2045     O2056   1.939       .  S
Fe2046     O2049   2.057       .  S
Fe2046     O2053   2.107       .  S
Fe2046     O2057   2.072       .  S
Fe2046     O2062   2.090       .  S
Fe2046     O2056   1.955       .  S
Fe2047     O2065   2.093       .  S
Fe2047     O2052   2.051       .  S
Fe2047     O2059   2.069       .  S
Fe2047     O2048   2.112       .  S
Fe2047     O2056   1.967       .  S
O2048      C2055   1.275       .  A
O2049      C2063   1.265       .  A
O2050      C2055   1.270       .  A
O2051      C2054   1.267       .  A
O2052      C2064   1.268       .  A
O2053      C2066   1.280       .  A
C2054      O2059   1.267       .  A
C2055      C4645   1.499   1_455  S
O2057      C2060   1.266       .  A
O2058      C2060   1.265       .  A
C2060      C2154   1.481       .  S
O2061      C2066   1.265       .  A
O2062      C2064   1.280       .  A
C2063      O2065   1.273       .  A
C2063      C2378   1.494       .  S
C2064      C2317   1.498       .  S
C2066      C2237   1.495       .  S
Fe2067     O2083   2.056       .  S
Fe2067     O2073   2.046       .  S
Fe2067     O2080   2.037       .  S
Fe2067     O2072   2.062       .  S
Fe2067     O2078   1.942       .  S
Fe2068     O2071   2.069       .  S
Fe2068     O2075   2.083       .  S
Fe2068     O2079   2.098       .  S
Fe2068     O2084   2.080       .  S
Fe2068     O2078   1.943       .  S
Fe2069     O2087   2.038       .  S
Fe2069     O2074   2.075       .  S
Fe2069     O2081   2.094       .  S
Fe2069     O2070   2.053       .  S
Fe2069     O2078   1.946       .  S
O2070      C2077   1.265       .  A
O2071      C2085   1.274       .  A
O2072      C2077   1.268       .  A
O2073      C2076   1.269   1_455  A
O2074      C2086   1.273       .  A
O2075      C2088   1.267       .  A
C2076      O2081   1.274   1_655  A
C2076      C4629   1.487       .  S
C2077      C2093   1.465       .  S
O2079      C2082   1.281       .  A
O2080      C2082   1.266       .  A
C2082      C2221   1.484       .  S
O2083      C2088   1.263       .  A
O2084      C2086   1.271       .  A
C2085      O2087   1.265       .  A
C2085      C2333   1.481       .  S
C2086      C2474   1.509       .  S
C2088      C2173   1.486       .  S
C2089      C2090   1.398       .  A
C2089      C2094   1.390       .  A
C2090      C2091   1.410       .  A
C2091      C2092   1.408       .  A
C2091      C2098   1.515       .  S
C2092      C2093   1.407       .  A
C2092      H2097   1.082       .  S
C2093      C2094   1.417       .  A
C2094      C2095   1.519       .  S
C2095      F2099   1.384   1_455  S
C2095      F2100   1.374       .  S
C2095      F2101   1.384   1_455  S
C2098      F2102   1.382       .  S
C2098      F2103   1.384       .  S
C2098      F2104   1.384       .  S
C2105      C2106   1.404       .  A
C2105      C2110   1.411       .  A
C2105      H2112   1.084       .  S
C2106      C2107   1.414       .  A
C2107      C2108   1.395       .  A
C2107      C2114   1.518       .  S
C2108      C2109   1.406       .  A
C2108      H2113   1.085       .  S
C2109      C4596   1.486       .  S
C2109      C2110   1.421       .  A
C2110      C4631   1.518       .  S
C2111      C4630   1.513       .  S
C2111      F2115   1.384       .  S
C2111      F2116   1.381       .  S
C2111      F2117   1.382       .  S
C2114      F2118   1.383       .  S
C2114      F2119   1.384       .  S
C2114      F2120   1.384       .  S
C2121      C2122   1.403       .  A
C2121      C2126   1.416       .  A
C2121      H2128   1.083       .  S
C2122      C2123   1.415       .  A
C2123      C2124   1.400       .  A
C2123      C2130   1.519       .  S
C2124      C2125   1.408       .  A
C2124      H2129   1.084       .  S
C2125      C4575   1.500       .  S
C2125      C2126   1.428       .  A
C2126      C4647   1.519       .  S
C2127      C4646   1.518       .  S
C2127      F4651   1.385       .  S
C2127      F2132   1.383       .  S
C2127      F2133   1.379   1_655  S
C2130      F2134   1.383       .  S
C2130      F2135   1.383       .  S
C2130      F2136   1.384       .  S
F2131      C4647   1.385       .  S
C2137      C2138   1.407       .  A
C2137      C2142   1.409       .  A
C2137      H2144   1.083       .  S
C2138      C2139   1.422       .  A
C2139      C2140   1.402       .  A
C2139      C2146   1.523       .  S
C2140      C2141   1.403       .  A
C2140      H2145   1.083       .  S
C2141      C2142   1.417       .  A
C2142      C2143   1.519       .  S
C2143      F2147   1.385       .  S
C2143      F2148   1.383       .  S
C2143      F2149   1.383       .  S
C2146      F2150   1.384       .  S
C2146      F2152   1.385       .  S
C2153      C2154   1.401       .  A
C2153      C4678   1.410   1_455  A
C2153      H2160   1.083       .  S
C2154      C2155   1.415       .  A
C2155      C4676   1.402   1_455  A
C2155      C2162   1.516       .  S
C2156      C4675   1.404       .  A
C2156      C2157   1.405       .  A
C2156      H2161   1.083       .  S
C2157      C2158   1.432       .  A
C2158      C4673   1.413       .  A
C2158      C2159   1.521       .  S
C2159      F2163   1.385       .  S
C2159      F2164   1.383       .  S
C2159      F2165   1.384       .  S
C2162      F2166   1.382       .  S
C2162      F2167   1.383       .  S
C2162      F2168   1.384       .  S
C2169      C2170   1.412       .  A
C2169      C2174   1.409       .  A
C2169      H2176   1.082       .  S
C2170      C2171   1.431       .  A
C2171      C4692   1.411       .  A
C2171      C2178   1.521       .  S
C2172      C4691   1.408   1_455  A
C2172      C2173   1.400       .  A
C2172      H2177   1.083       .  S
C2173      C4694   1.416   1_455  A
C2174      C4693   1.415       .  A
C2174      C2175   1.520       .  S
C2175      F2179   1.385       .  S
C2175      F4700   1.383       .  S
C2175      F4701   1.383       .  S
C2178      F2182   1.383   1_556  S
C2178      F4704   1.385   1_556  S
F2180      C4695   1.383       .  S
F2181      C4695   1.383       .  S
F2184      C4698   1.385   1_455  S
C2185      C2186   1.406       .  A
C2185      H2192   1.083       .  S
C2186      C2187   1.422       .  A
C2187      C2194   1.518       .  S
C2188      C2189   1.401       .  A
C2188      H2193   1.083       .  S
C2189      C2190   1.416       .  A
C2190      C2191   1.520       .  S
C2191      F2195   1.385       .  S
C2191      F2196   1.383       .  S
C2191      F2197   1.384       .  S
C2194      F2198   1.382       .  S
C2194      F2199   1.384       .  S
C2194      F2200   1.385       .  S
C2201      C2202   1.405       .  A
C2201      C2206   1.409       .  A
C2201      H2208   1.083       .  S
C2202      C2203   1.414       .  A
C2203      C2204   1.401       .  A
C2203      C2210   1.518   1_556  S
C2204      C2205   1.404       .  A
C2204      H2209   1.085   1_556  S
C2205      C2206   1.415       .  A
C2206      C2207   1.517       .  S
C2207      F2211   1.384       .  S
C2207      F2212   1.383       .  S
C2210      F2214   1.384       .  S
C2210      F2215   1.383       .  S
C2210      F2216   1.384       .  S
C2217      C2218   1.402       .  A
C2217      C2222   1.406       .  A
C2217      H2224   1.084       .  S
C2218      C2219   1.415       .  A
C2219      C2220   1.404       .  A
C2219      C2226   1.505       .  S
C2220      C2221   1.401       .  A
C2220      H2225   1.083       .  S
C2221      C2222   1.424       .  A
C2222      C2223   1.521       .  S
C2223      F2227   1.385       .  S
C2223      F2228   1.382       .  S
C2223      F2229   1.383       .  S
C2226      F2230   1.382       .  S
C2226      F2231   1.382   1_556  S
C2226      F2232   1.385       .  S
C2233      C2234   1.404       .  A
C2233      C2238   1.400       .  A
C2233      H2240   1.084       .  S
C2234      C2235   1.421       .  A
C2235      C2242   1.518       .  S
C2236      C2237   1.408       .  A
C2236      H2241   1.083       .  S
C2239      F2244   1.381       .  S
C2242      F2246   1.382       .  S
C2242      F2247   1.382       .  S
C2249      C2250   1.404       .  A
C2249      C2254   1.395       .  A
C2249      H2256   1.082   1_556  S
C2250      C2251   1.414       .  A
C2251      C2252   1.413       .  A
C2251      C2258   1.514       .  S
C2252      C2253   1.408       .  A
C2252      H2257   1.080       .  S
C2253      C2254   1.411       .  A
C2254      C2255   1.518   1_556  S
C2255      F2259   1.383       .  S
C2255      F2260   1.384       .  S
C2258      F2262   1.383       .  S
C2258      F2263   1.378       .  S
C2258      F2264   1.385       .  S
C2265      C2266   1.405       .  A
C2265      C2270   1.404       .  A
C2265      H2272   1.085   1_556  S
C2266      C2267   1.420       .  A
C2267      C2268   1.408       .  A
C2268      C2269   1.401       .  A
C2269      C2270   1.414       .  A
C2270      C2271   1.516   1_556  S
C2271      F2275   1.384   1_554  S
C2271      F2276   1.383       .  S
C2271      F2277   1.382       .  S
C2274      F2278   1.382       .  S
C2274      F2280   1.384       .  S
C2281      C2282   1.397       .  A
C2281      C2286   1.408       .  A
C2281      H2288   1.083       .  S
C2282      C2283   1.414       .  A
C2283      C2284   1.406       .  A
C2283      C2290   1.521       .  S
C2284      C2285   1.410       .  A
C2284      H2289   1.082       .  S
C2285      C2286   1.432       .  A
C2286      C2287   1.523       .  S
C2287      F2291   1.385       .  S
C2287      F2292   1.384       .  S
C2287      F2293   1.383       .  S
C2290      F2294   1.383       .  S
C2290      F2295   1.384       .  S
C2290      F2296   1.384       .  S
C2297      C2298   1.403       .  A
C2297      C2302   1.401       .  A
C2297      H2304   1.083       .  S
C2298      C2299   1.421       .  A
C2299      C2300   1.406       .  A
C2299      C4826   1.518       .  S
C2300      C2301   1.401       .  A
C2300      H2305   1.084       .  S
C2301      C2302   1.418       .  A
C2302      C2303   1.520       .  S
C2303      F2307   1.385       .  S
C2303      F2308   1.383       .  S
C2303      F2309   1.383       .  S
C2306      C4819   1.518   1_455  S
C2306      F2310   1.383       .  S
C2306      F2311   1.383       .  S
C2306      F2312   1.384       .  S
C2313      C2314   1.399       .  A
C2313      C2318   1.409       .  A
C2313      H2320   1.084       .  S
C2314      C2315   1.413       .  A
C2315      C2316   1.403       .  A
C2315      C2322   1.514       .  S
C2316      C2317   1.408       .  A
C2316      H2321   1.082       .  S
C2317      C2318   1.431       .  A
C2318      C2319   1.522       .  S
C2319      F2323   1.385   1_455  S
C2319      F2324   1.383       .  S
C2319      F2325   1.384       .  S
C2322      F2326   1.381       .  S
C2322      F2327   1.384       .  S
C2322      F2328   1.385       .  S
C2329      C2330   1.403       .  A
C2329      C2334   1.404       .  A
C2329      H4856   1.083       .  S
C2330      C2331   1.420       .  A
C2331      C2332   1.399       .  A
C2331      C2338   1.519       .  S
C2332      C2333   1.403       .  A
C2332      H2337   1.082       .  S
C2333      C2334   1.423       .  A
C2334      C4855   1.522       .  S
C2335      C4854   1.521       .  S
C2335      F2339   1.385       .  S
C2335      F4860   1.383       .  S
C2335      F2341   1.383       .  S
H2336      C4849   1.083       .  S
C2338      F2342   1.385       .  S
C2338      F2343   1.382       .  S
C2338      F2344   1.377       .  S
F2340      C4855   1.383   1_655  S
C2345      C2346   1.408       .  A
C2345      C2350   1.414       .  A
C2345      H2352   1.083       .  S
C2346      C2347   1.425       .  A
C2347      C2348   1.406       .  A
C2348      C2349   1.405       .  A
C2348      H2353   1.083       .  S
C2349      C2350   1.421       .  A
C2350      C2351   1.519       .  S
C2351      F2355   1.384       .  S
C2351      F2356   1.383       .  S
C2351      F2357   1.383       .  S
C2354      F2358   1.385       .  S
C2361      C2362   1.402       .  A
C2361      C2366   1.406       .  A
C2361      H2368   1.083       .  S
C2362      C2363   1.411       .  A
C2363      C2364   1.404       .  A
C2363      C2370   1.520       .  S
C2364      C2365   1.413       .  A
C2364      H2369   1.083       .  S
C2365      C2366   1.422       .  A
C2366      C2367   1.519       .  S
C2367      F2371   1.385       .  S
C2367      F2372   1.383       .  S
C2370      F2374   1.383       .  S
C2370      F2375   1.383       .  S
C2370      F2376   1.385       .  S
C2377      C2378   1.409       .  A
C2377      C2382   1.415       .  A
C2377      H2384   1.083       .  S
C2378      C2379   1.424       .  A
C2379      C2380   1.405       .  A
C2379      C2386   1.523       .  S
C2380      C2381   1.403       .  A
C2380      H2385   1.083       .  S
C2381      C2382   1.416       .  A
C2383      F2387   1.385       .  S
C2383      F2388   1.384       .  S
C2383      F2389   1.382       .  S
C2386      F2390   1.383       .  S
C2386      F2391   1.383       .  S
C2386      F2392   1.385       .  S
C2393      C2394   1.405       .  A
C2393      C2398   1.404       .  A
C2393      H2400   1.083       .  S
C2394      C2395   1.422       .  A
C2395      C2396   1.408       .  A
C2395      C2402   1.520       .  S
C2396      C2397   1.403       .  A
C2397      C2398   1.418       .  A
C2398      C2399   1.521       .  S
C2399      F2403   1.385       .  S
C2399      F2404   1.382       .  S
C2399      F2405   1.384       .  S
C2402      F2406   1.382       .  S
C2409      C2410   1.402       .  A
C2409      C2414   1.398       .  A
C2409      H2416   1.085       .  S
C2410      C2411   1.417       .  A
C2411      C2412   1.406       .  A
C2411      C2418   1.520       .  S
C2412      C2413   1.402       .  A
C2412      H2417   1.084       .  S
C2413      C2414   1.412       .  A
C2414      C2415   1.517       .  S
C2415      F2419   1.383       .  S
C2415      F2420   1.383       .  S
C2415      F2421   1.384       .  S
C2418      F2422   1.383       .  S
C2418      F2423   1.383       .  S
C2418      F2424   1.384       .  S
C2425      C2426   1.407       .  A
C2425      C2430   1.409       .  A
C2425      H2432   1.081       .  S
C2426      C2427   1.426       .  A
C2427      C2428   1.416       .  A
C2427      C2434   1.518       .  S
C2428      C2429   1.404       .  A
C2428      H2433   1.081       .  S
C2429      C2430   1.421       .  A
C2430      C2431   1.520       .  S
C2431      F2435   1.385       .  S
C2431      F2436   1.384       .  S
C2431      F2437   1.383       .  S
C2434      F2438   1.384       .  S
C2434      F2439   1.383       .  S
C2434      F2440   1.385       .  S
C2441      C2442   1.405       .  A
C2441      C2446   1.401       .  A
C2441      H2448   1.085       .  S
C2442      C2443   1.429       .  A
C2443      C2444   1.413       .  A
C2443      C2450   1.519       .  S
C2444      C2445   1.400       .  A
C2444      H2449   1.084       .  S
C2445      C2446   1.417       .  A
C2446      C2447   1.513       .  S
C2447      F2451   1.382       .  S
C2447      F2452   1.381       .  S
C2447      F2453   1.381       .  S
C2450      F2454   1.381       .  S
C2450      F2455   1.383       .  S
C2450      F2456   1.385       .  S
C2457      C2458   1.406       .  A
C2457      C2462   1.403       .  A
C2457      H2464   1.083       .  S
C2458      C2459   1.418       .  A
C2459      C2460   1.409       .  A
C2459      C2466   1.518       .  S
C2460      C2461   1.408       .  A
C2460      H2465   1.083       .  S
C2461      C2462   1.420       .  A
C2462      C2463   1.523       .  S
C2463      F2467   1.384       .  S
C2463      F2468   1.383       .  S
C2463      F2469   1.385       .  S
C2466      F2470   1.385       .  S
C2466      F2471   1.383       .  S
C2466      F2472   1.383       .  S
C2473      C2474   1.410       .  A
C2473      C2478   1.404       .  A
C2473      H2480   1.084       .  S
C2474      C2475   1.429       .  A
C2475      C2476   1.418       .  A
C2475      C2482   1.519       .  S
C2476      C2477   1.404       .  A
C2476      H2481   1.083       .  S
C2477      C2478   1.416       .  A
C2478      C2479   1.520       .  S
C2479      F2483   1.382       .  S
C2479      F2484   1.383       .  S
C2479      F2485   1.381       .  S
C2482      F2486   1.384       .  S
C2482      F2487   1.383       .  S
C2482      F2488   1.385       .  S
C2489      C2490   1.404       .  A
C2489      C2494   1.399       .  A
C2489      H2496   1.085       .  S
C2490      C2491   1.423       .  A
C2491      C2492   1.422       .  A
C2491      C2498   1.517       .  S
C2492      C2493   1.409       .  A
C2492      H2497   1.083       .  S
C2493      C2494   1.420       .  A
C2494      C2495   1.518       .  S
C2495      F2499   1.385       .  S
C2495      F2500   1.382       .  S
C2495      F2501   1.384       .  S
C2498      F2502   1.378       .  S
C2498      F2503   1.383       .  S
C2498      F2504   1.384       .  S
C2505      C2506   1.404       .  A
C2505      C2510   1.399       .  A
C2505      H2512   1.085       .  S
C2506      C2507   1.421       .  A
C2507      C2508   1.410       .  A
C2507      C2514   1.512       .  S
C2508      C2509   1.400       .  A
C2508      H2513   1.085       .  S
C2509      C2510   1.413       .  A
C2510      C2511   1.518       .  S
C2511      F2515   1.383       .  S
C2511      F2516   1.383       .  S
C2511      F2517   1.382       .  S
C2514      F2518   1.383       .  S
C2514      F2519   1.381       .  S
C2514      F2520   1.385       .  S
Fe2521     O2537   2.038       .  S
Fe2521     O2527   2.054       .  S
Fe2521     O2534   2.057       .  S
Fe2521     O2526   2.044       .  S
Fe2521     O2532   1.970       .  S
Fe2522     O2525   2.070       .  S
Fe2522     O2529   2.087       .  S
Fe2522     O2533   2.085       .  S
Fe2522     O2538   2.070       .  S
Fe2522     O2532   1.986       .  S
Fe2523     O2541   2.065       .  S
Fe2523     O2528   2.093       .  S
Fe2523     O2535   2.107       .  S
Fe2523     O2524   2.089       .  S
Fe2523     O2532   1.981       .  S
O2524      C2531   1.271       .  A
O2525      C2539   1.270       .  A
O2526      C2531   1.264       .  A
O2527      C2530   1.270       .  A
O2528      C2540   1.280       .  A
O2529      C2542   1.270       .  A
C2530      O2535   1.275       .  A
C2530      C3120   1.500       .  S
C2531      C3136   1.483       .  S
O2533      C2536   1.270       .  A
O2534      C2536   1.266       .  A
C2536      C3107   1.478       .  S
O2537      C2542   1.265       .  A
O2538      C2540   1.269       .  A
C2539      O2541   1.268       .  A
C2539      C3056   1.491       .  S
C2540      C3072   1.512       .  S
C2542      C3088   1.488       .  S
Fe2543     O2559   2.055       .  S
Fe2543     O2549   2.043       .  S
Fe2543     O2556   2.053       .  S
Fe2543     O2548   2.053       .  S
Fe2543     O2554   1.968       .  S
Fe2544     O2547   2.061   1_565  S
Fe2544     O2551   2.087       .  S
Fe2544     O2555   2.080       .  S
Fe2544     O2560   2.076   1_565  S
Fe2544     O3814   1.980       .  S
Fe2545     O2563   2.098       .  S
Fe2545     O2550   2.042       .  S
Fe2545     O2557   2.061       .  S
Fe2545     O2546   2.105       .  S
Fe2545     O2554   1.987       .  S
O2546      C2553   1.275       .  A
O2547      C2561   1.268       .  A
O2548      C2553   1.268       .  A
O2549      C2552   1.265       .  A
O2550      C3822   1.265       .  A
O2551      C3824   1.270       .  A
C2552      O2557   1.264       .  A
C2552      C3040   1.465       .  S
C2553      C3123   1.495       .  S
O2554     Fe3804   1.982       .  S
O2555      C3818   1.270       .  A
O2556      C2558   1.264       .  A
C2558      O3815   1.269       .  A
C2558      C3027   1.479       .  S
O2559      C2564   1.266       .  A
O2560      C2562   1.268       .  A
C2561      O3823   1.275   1_545  A
C2561      C2976   1.497       .  S
C2562      O3810   1.265   1_545  A
C2562      C2995   1.495       .  S
O2563      C3821   1.278       .  A
C2564      O3811   1.270       .  A
C2564      C3011   1.482       .  S
Fe2565     O2581   2.043       .  S
Fe2565     O2571   2.057       .  S
Fe2565     O2578   2.062       .  S
Fe2565     O2570   2.044       .  S
Fe2565     O2576   1.968       .  S
Fe2566     O2569   2.080   1_455  S
Fe2566     O2582   2.055   1_455  S
Fe2567     O2585   2.053       .  S
Fe2567     O2572   2.064       .  S
Fe2567     O2579   2.067       .  S
Fe2567     O2568   2.067       .  S
Fe2567     O2576   1.986       .  S
O2568      C2575   1.266       .  A
O2569      C2583   1.274   1_655  A
O2570      C2575   1.265       .  A
O2571      C2574   1.268       .  A
O2573      C2586   1.270       .  A
C2574      O2579   1.268       .  A
C2574      C3139   1.467       .  S
C2575      C3043   1.465       .  S
O2577      C2580   1.269       .  A
O2578      C2580   1.266       .  A
C2580      C2944   1.484       .  S
O2581      C2586   1.262       .  A
O2582      C2584   1.264       .  A
C2583      C2928   1.488   1_455  S
C2584      C2915   1.491       .  S
C2586      C2960   1.487       .  S
Fe2587     O2603   2.048       .  S
Fe2587     O2593   2.045       .  S
Fe2587     O2600   2.053       .  S
Fe2587     O2592   2.051   1_554  S
Fe2587     O2598   1.957   1_554  S
Fe2588     O3221   2.093   1_554  S
Fe2588     O2595   2.086       .  S
Fe2588     O2599   2.113       .  S
Fe2588     O3234   2.078   1_554  S
Fe2588     O2598   1.961   1_554  S
Fe2589     O2607   2.073       .  S
Fe2589     O2594   2.069       .  S
Fe2589     O2601   2.090       .  S
Fe2589     O2590   2.082       .  S
Fe2589     O3228   1.977       .  S
O2590      C2597   1.271       .  A
O2591     Fe3218   2.075       .  S
O2591      C2605   1.275       .  A
O2592      C3227   1.270       .  A
O2593      C3226   1.263   1_554  A
O2594      C2606   1.269       .  A
O2595      C2608   1.270       .  A
C2596      O3223   1.264       .  A
C2596      O2601   1.270       .  A
C2596      C2896   1.482       .  S
C2597      O3222   1.269       .  A
C2597      C2880   1.476       .  S
O2598     Fe3219   1.972       .  S
O2599      C2602   1.278       .  A
O2600      C2602   1.265       .  A
C2602      C3075   1.488       .  S
O2603      C2608   1.266       .  A
O2604     Fe3218   2.067       .  S
O2604      C2606   1.268       .  A
C2605      O2607   1.272       .  A
C2605      C2864   1.495       .  S
C2606      C2848   1.479       .  S
C2608      C2979   1.490       .  S
Fe2609     O2625   2.047       .  S
Fe2609     O2615   2.057       .  S
Fe2609     O2622   2.055       .  S
Fe2609     O2614   2.054       .  S
Fe2609     O2620   1.966       .  S
Fe2610     O3243   2.058   1_554  S
Fe2610     O2617   2.087       .  S
Fe2610     O2621   2.065       .  S
Fe2610     O3256   2.088   1_554  S
Fe2610     O2620   1.971       .  S
Fe2611     O2629   2.092       .  S
Fe2611     O2616   2.045       .  S
Fe2611     O2623   2.065       .  S
Fe2611     O2612   2.091       .  S
Fe2611     O3250   1.969       .  S
O2612      C2619   1.274       .  A
O2613     Fe3240   2.064       .  S
O2613      C2627   1.268       .  A
O2614      C3249   1.267   1_554  A
O2615      C3248   1.268   1_554  A
O2616      C2628   1.263       .  A
O2617      C2630   1.273       .  A
C2618      O3245   1.269       .  A
C2618      O2623   1.267       .  A
C2618      C2832   1.469       .  S
C2619      O3244   1.265       .  A
C2619      C2899   1.479       .  S
O2620     Fe3241   1.980   1_554  S
O2621      C2624   1.267       .  A
O2622      C2624   1.266       .  A
C2624      C2992   1.476       .  S
O2625      C2630   1.266       .  A
O2626     Fe3240   2.089       .  S
O2626      C2628   1.275       .  A
C2627      O2629   1.275       .  A
C2627      C2800   1.501       .  S
C2628      C2816   1.501       .  S
C2630      C2931   1.480       .  S
Fe2631     O2647   2.050       .  S
Fe2631     O2637   2.050       .  S
Fe2631     O2644   2.053       .  S
Fe2631     O2636   2.038       .  S
Fe2631     O2642   1.966       .  S
Fe2632     O3265   2.044   1_554  S
Fe2632     O2639   2.083       .  S
Fe2632     O2643   2.054       .  S
Fe2632     O3278   2.080   1_554  S
Fe2632     O2642   1.977       .  S
Fe2633     O2651   2.059       .  S
Fe2633     O2638   2.042       .  S
Fe2633     O2645   2.063       .  S
Fe2633     O2634   2.075       .  S
Fe2633     O3272   1.986       .  S
O2634      C2641   1.268       .  A
O2635     Fe3262   2.058       .  S
O2635      C2649   1.266       .  A
O2636      C3271   1.264   1_554  A
O2637      C3270   1.268   1_554  A
O2638      C2650   1.263       .  A
O2639      C2652   1.271       .  A
C2640      O3267   1.269       .  A
C2640      O2645   1.266       .  A
C2640      C2883   1.474       .  S
C2641      O3266   1.264       .  A
C2641      C2835   1.475       .  S
O2642     Fe3263   1.990   1_554  S
O2643      C2646   1.264       .  A
O2644      C2646   1.267       .  A
C2646      C2912   1.474       .  S
O2647      C2652   1.265       .  A
O2648     Fe3262   2.090       .  S
O2648      C2650   1.275       .  A
C2649      O2651   1.269       .  A
C2649      C2768   1.483       .  S
C2650      C2787   1.495       .  S
C2652      C3059   1.482       .  S
Fe2653     O2669   2.039       .  S
Fe2653     O2659   2.050       .  S
Fe2653     O2666   2.047       .  S
Fe2653     O2658   2.041       .  S
Fe2653     O2664   1.971       .  S
Fe2654     O2657   2.064       .  S
Fe2654     O2661   2.081       .  S
Fe2654     O2665   2.074       .  S
Fe2654     O2670   2.077       .  S
Fe2654     O2664   1.981       .  S
Fe2655     O2673   2.066       .  S
Fe2655     O2660   2.059       .  S
Fe2655     O2667   2.084       .  S
Fe2655     O2656   2.081       .  S
Fe2655     O2664   1.985       .  S
O2656      C2663   1.271       .  A
O2657      C2671   1.268       .  A
O2658      C2663   1.267       .  A
O2659      C2662   1.265       .  A
O2660      C2672   1.267       .  A
O2661      C2674   1.271       .  A
C2662      O2667   1.268       .  A
C2662      C2752   1.480       .  S
C2663      C3996   1.474       .  S
O2665      C2668   1.268       .  A
O2666      C2668   1.262       .  A
C2668      C2819   1.477       .  S
O2669      C2674   1.267       .  A
O2670      C2672   1.272       .  A
C2671      O2673   1.271       .  A
C2671      C3091   1.487       .  S
C2672      C3024   1.495       .  S
C2674      C2771   1.479       .  S
Fe2675     O2691   2.032       .  S
Fe2675     O2681   2.040       .  S
Fe2675     O2688   2.060       .  S
Fe2675     O2680   2.046       .  S
Fe2675     O2686   1.936       .  S
Fe2676     O2679   2.061       .  S
Fe2676     O2683   2.108       .  S
Fe2676     O2687   2.079       .  S
Fe2676     O2692   2.091       .  S
Fe2676     O2686   1.951       .  S
Fe2677     O2695   2.089       .  S
Fe2677     O2682   2.056       .  S
Fe2677     O2689   2.077       .  S
Fe2677     O2678   2.110       .  S
Fe2677     O2686   1.960       .  S
O2678      C2685   1.277       .  A
O2679      C2693   1.267       .  A
O2680      C2685   1.270       .  A
O2681      C2684   1.265       .  A
O2682      C2694   1.269       .  A
O2683      C2696   1.279       .  A
C2684      O2689   1.267       .  A
C2684      C3980   1.471       .  S
O2687      C2690   1.269       .  A
O2688      C2690   1.264       .  A
C2690      C2784   1.486       .  S
O2691      C2696   1.263       .  A
O2692      C2694   1.278       .  A
C2693      O2695   1.275       .  A
C2693      C3008   1.499       .  S
C2694      C2947   1.501       .  S
C2696      C2867   1.490       .  S
Fe2697     O2713   2.042       .  S
Fe2697     O2703   2.036       .  S
Fe2697     O2710   2.037       .  S
Fe2697     O2702   2.037       .  S
Fe2697     O2708   1.962       .  S
Fe2698     O2701   2.065       .  S
Fe2698     O2705   2.083       .  S
Fe2698     O2709   2.084       .  S
Fe2698     O2714   2.074       .  S
Fe2698     O2708   1.971       .  S
Fe2699     O2717   2.049       .  S
Fe2699     O2704   2.067       .  S
Fe2699     O2711   2.089       .  S
Fe2699     O2700   2.070       .  S
Fe2699     O2708   1.976       .  S
O2700      C2707   1.266       .  A
O2701      C2715   1.272       .  A
O2702      C2707   1.263       .  A
O2703      C2706   1.268       .  A
O2704      C2716   1.271       .  A
O2705      C2718   1.268       .  A
C2706      O2711   1.271       .  A
C2707      C2723   1.467       .  S
O2709      C2712   1.276       .  A
O2710      C2712   1.263       .  A
C2712      C2851   1.481       .  S
O2713      C2718   1.261       .  A
O2714      C2716   1.268       .  A
C2715      O2717   1.267       .  A
C2715      C2963   1.476       .  S
C2716      C3104   1.505       .  S
C2718      C2803   1.483       .  S
C2719      C2720   1.398       .  A
C2719      C2724   1.385       .  A
C2719      H3986   1.085   1_545  S
C2720      C3944   1.468   1_545  S
C2720      C2721   1.414       .  A
C2721      C2722   1.414       .  A
C2721      C2728   1.515       .  S
C2722      C2723   1.408       .  A
C2722      H2727   1.083       .  S
C2723      C2724   1.415       .  A
C2724      C2725   1.518       .  S
C2725      F2729   1.384   1_545  S
C2725      F2730   1.376       .  S
C2725      F2731   1.383       .  S
H2726      C3979   1.083       .  S
C2728      F2732   1.383       .  S
C2728      F2733   1.384       .  S
C2728      F2734   1.384       .  S
C2735      C2736   1.401       .  A
C2735      C2740   1.407       .  A
C2735      H2742   1.084       .  S
C2736      C3923   1.473   1_545  S
C2736      C2737   1.416       .  A
C2737      C2738   1.397       .  A
C2737      C2744   1.516       .  S
C2738      C2739   1.405       .  A
C2738      H2743   1.085       .  S
C2739      C2740   1.421       .  A
C2741      F2745   1.385       .  S
C2741      F2746   1.381       .  S
C2741      F2747   1.383       .  S
C2744      F2748   1.383       .  S
C2744      F2749   1.383       .  S
C2744      F2750   1.384       .  S
C2751      C2752   1.403       .  A
C2751      C2756   1.416       .  A
C2751      H2758   1.083       .  S
C2752      C2753   1.415       .  A
C2753      C2754   1.399       .  A
C2753      C2760   1.518       .  S
C2754      C2755   1.406       .  A
C2754      H2759   1.085       .  S
C2755      C2756   1.427       .  A
C2757      F2762   1.383       .  S
C2757      F2763   1.379       .  S
C2760      F2764   1.381       .  S
C2760      F2765   1.383       .  S
C2760      F2766   1.383       .  S
C2767      C2768   1.406       .  A
C2767      C2772   1.406       .  A
C2767      H2774   1.082       .  S
C2768      C2769   1.421       .  A
C2769      C2770   1.404       .  A
C2769      C2776   1.522       .  S
C2770      C2771   1.404       .  A
C2770      H2775   1.082       .  S
C2771      C2772   1.417       .  A
C2772      C2773   1.520       .  S
C2773      F2777   1.385       .  S
C2773      F2778   1.382       .  S
C2773      F2779   1.382       .  S
C2776      F2780   1.384       .  S
C2776      F3411   1.383       .  S
C2776      F2782   1.385       .  S
F2781      C3406   1.383   1_554  S
C2783      C2784   1.402       .  A
C2783      H2790   1.084       .  S
C2784      C2785   1.418       .  A
C2785      C2792   1.516       .  S
C2786      C2787   1.405       .  A
C2786      H2791   1.084       .  S
C2787      C2788   1.430       .  A
C2788      C2789   1.521       .  S
C2789      F2793   1.385       .  S
C2789      F2794   1.383       .  S
C2789      F2795   1.384       .  S
C2792      F2796   1.382       .  S
C2792      F2797   1.384       .  S
C2792      F2798   1.385       .  S
C2799      C2800   1.409       .  A
C2799      C2804   1.413   1_655  A
C2799      H2806   1.082       .  S
C2800      C2801   1.427       .  A
C2801      C2808   1.522       .  S
C2802      C2803   1.402       .  A
C2802      H2807   1.083       .  S
C2804      C2805   1.519       .  S
C2805      F2809   1.384   1_455  S
C2808      F2812   1.384       .  S
C2808      F3443   1.383       .  S
F2813      C3438   1.383   1_554  S
C2815      C2816   1.411       .  A
C2815      C4080   1.406   1_545  A
C2815      H2822   1.083       .  S
C2816      C2817   1.433       .  A
C2817      C4078   1.407       .  A
C2817      C2824   1.524       .  S
C2818      C4077   1.408       .  A
C2818      C2819   1.398       .  A
C2818      H2823   1.084       .  S
C2819      C2820   1.414       .  A
C2820      C4075   1.407       .  A
C2820      C2821   1.521       .  S
C2821      F2825   1.385       .  S
C2821      F2826   1.382       .  S
C2821      F2827   1.384       .  S
C2824      F2828   1.384       .  S
C2824      F2829   1.384       .  S
C2824      F2830   1.385       .  S
C2831      C2832   1.404       .  A
C2831      C2836   1.410       .  A
C2831      H2838   1.083       .  S
C2832      C2833   1.412       .  A
C2833      C2834   1.400       .  A
C2833      C2840   1.517       .  S
C2834      C2835   1.403       .  A
C2834      H2839   1.085       .  S
C2835      C2836   1.416       .  A
C2836      C2837   1.517       .  S
C2837      F2841   1.384       .  S
C2837      F2842   1.383       .  S
C2837      F3473   1.384       .  S
C2840      F2844   1.384       .  S
C2840      F2845   1.382       .  S
C2840      F2846   1.384       .  S
F2843      C3467   1.384       .  S
C2847      C2848   1.400       .  A
C2847      C2852   1.404       .  A
C2847      H2854   1.083       .  S
C2848      C2849   1.414       .  A
C2849      C2850   1.404       .  A
C2849      C2856   1.505       .  S
C2850      C2851   1.401       .  A
C2850      H2855   1.082       .  S
C2851      C2852   1.425       .  A
C2852      C2853   1.522       .  S
C2853      F2857   1.385       .  S
C2853      F2858   1.382       .  S
C2853      F2859   1.383       .  S
C2856      F2860   1.382       .  S
C2856      F2861   1.382       .  S
C2856      F2862   1.385       .  S
C2863      C2864   1.405       .  A
C2863      C2868   1.401   1_545  A
C2863      H2870   1.083       .  S
C2864      C2865   1.423       .  A
C2865      C4126   1.415   1_545  A
C2865      C2872   1.518       .  S
C2866      C4125   1.413       .  A
C2866      C2867   1.408       .  A
C2866      H2871   1.083       .  S
C2867      C4128   1.425       .  A
C2868      C4127   1.422       .  A
C2868      C4129   1.522       .  S
C2869      C4128   1.524       .  S
C2869      F4133   1.385       .  S
C2869      F2874   1.381       .  S
C2869      F4135   1.384       .  S
C2872      F2876   1.383       .  S
C2872      F2877   1.382       .  S
C2872      F4138   1.385       .  S
F2873      C4129   1.385   1_545  S
F2875      C4129   1.383       .  S
F2878      C4132   1.384       .  S
C2879      C2880   1.403       .  A
C2879      C2884   1.394       .  A
C2879      H2886   1.088       .  S
C2880      C2881   1.415       .  A
C2881      C2882   1.413       .  A
C2881      C2888   1.515       .  S
C2882      C2883   1.407       .  A
C2882      H2887   1.085       .  S
C2883      C2884   1.411       .  A
C2884      C2885   1.518       .  S
C2885      F2889   1.382       .  S
C2885      F2890   1.384       .  S
C2885      F3521   1.383       .  S
C2888      F2892   1.383       .  S
C2888      F2893   1.378       .  S
C2888      F2894   1.384       .  S
F2891      C3515   1.383       .  S
C2895      C2896   1.404       .  A
C2895      C2900   1.407       .  A
C2895      H2902   1.084       .  S
C2896      C2897   1.417       .  A
C2897      C2898   1.406       .  A
C2897      C3534   1.513       .  S
C2898      C2899   1.402       .  A
C2898      H3533   1.084       .  S
C2899      C2900   1.419       .  A
C2900      C2901   1.520       .  S
C2901      F2905   1.385       .  S
C2901      F2906   1.381       .  S
C2901      F2907   1.383       .  S
H2903      C3528   1.083       .  S
C2904      C3527   1.514       .  S
C2904      F2908   1.383       .  S
C2904      F3539   1.383       .  S
C2904      F2910   1.384       .  S
F2909      C3534   1.383       .  S
C2911      C2912   1.399       .  A
C2911      C2916   1.404       .  A
C2911      H2918   1.083       .  S
C2912      C2913   1.416       .  A
C2913      C2914   1.405       .  A
C2913      C2920   1.522       .  S
C2914      C2915   1.408       .  A
C2914      H2919   1.083   1_655  S
C2915      C2916   1.427       .  A
C2916      C2917   1.523       .  S
C2917      F2921   1.385       .  S
C2917      F2922   1.383       .  S
C2917      F2923   1.384       .  S
C2920      F2924   1.383       .  S
C2920      F2925   1.384       .  S
C2920      F2926   1.384   1_655  S
C2927      C2928   1.405       .  A
C2927      C2932   1.406       .  A
C2927      H2934   1.083       .  S
C2928      C2929   1.424       .  A
C2929      C2930   1.407       .  A
C2930      C2931   1.400       .  A
C2930      H2935   1.084       .  S
C2931      C2932   1.418       .  A
C2932      C2933   1.518       .  S
C2933      F2937   1.385       .  S
C2933      F2938   1.383       .  S
C2933      F2939   1.382       .  S
C2936      F2940   1.382       .  S
C2936      F2941   1.382       .  S
C2936      F2942   1.385       .  S
C2943      C2944   1.401       .  A
C2943      C2948   1.411       .  A
C2943      H2950   1.083       .  S
C2944      C2945   1.415       .  A
C2945      C2946   1.406       .  A
C2945      C2952   1.517       .  S
C2946      C2947   1.409       .  A
C2946      H2951   1.082       .  S
C2947      C2948   1.429       .  A
C2948      C2949   1.521       .  S
C2949      F2953   1.385       .  S
C2949      F2954   1.383       .  S
C2949      F2955   1.384       .  S
C2952      F2956   1.381       .  S
C2952      F2957   1.384       .  S
C2952      F2958   1.385       .  S
C2959      C2960   1.407       .  A
C2959      C2964   1.403       .  A
C2960      C2961   1.426       .  A
C2961      C2962   1.403       .  A
C2961      C2968   1.522       .  S
C2962      C2963   1.401       .  A
C2962      H2967   1.083       .  S
C2963      C2964   1.417       .  A
C2965      F2969   1.385   1_455  S
C2965      F2971   1.382       .  S
C2968      F2972   1.385       .  S
C2968      F2973   1.383       .  S
C2968      F2974   1.380       .  S
C2975      C2976   1.409       .  A
C2975      C2980   1.413       .  A
C2975      H2982   1.082   1_545  S
C2976      C2977   1.426       .  A
C2977      C2978   1.406       .  A
C2977      C4244   1.523       .  S
C2978      C2979   1.403       .  A
C2978      H2983   1.082       .  S
C2979      C2980   1.419       .  A
C2980      C2981   1.518       .  S
C2981      F2985   1.384   1_545  S
C2981      F2986   1.383       .  S
C2981      F2987   1.383       .  S
C2984      C4237   1.523       .  S
C2984      F2988   1.385       .  S
C2984      F4249   1.381       .  S
C2984      F4250   1.382       .  S
F2989      C4244   1.383       .  S
F2990      C4244   1.383       .  S
C2991      C2992   1.403       .  A
C2991      C2996   1.407       .  A
C2991      H2998   1.081       .  S
C2992      C2993   1.411       .  A
C2993      C2994   1.404       .  A
C2993      C3000   1.520       .  S
C2994      C2995   1.413       .  A
C2994      H2999   1.082   1_545  S
C2995      C2996   1.422       .  A
C2996      C2997   1.519       .  S
C2997      F3001   1.385       .  S
C2997      F3002   1.384       .  S
C2997      F4263   1.382       .  S
C3000      F3004   1.383       .  S
C3000      F3005   1.381       .  S
C3000      F3006   1.384   1_545  S
F3003      C4257   1.380       .  S
C3007      C3008   1.410       .  A
C3007      C3012   1.411       .  A
C3007      H3014   1.083       .  S
C3008      C3009   1.428       .  A
C3009      C3010   1.408       .  A
C3009      C3016   1.522       .  S
C3010      C3011   1.399       .  A
C3010      H3015   1.084       .  S
C3011      C3012   1.415       .  A
C3012      C4273   1.517       .  S
C3013      C4272   1.518       .  S
C3013      F3017   1.384       .  S
C3013      F3018   1.384       .  S
C3013      F3019   1.382   1_565  S
C3016      F3020   1.384       .  S
C3016      F3021   1.384       .  S
C3016      F3022   1.385       .  S
C3023      C3024   1.410       .  A
C3023      C3028   1.408       .  A
C3023      H3030   1.083       .  S
C3024      C3025   1.427       .  A
C3025      C3026   1.406       .  A
C3025      C3032   1.522       .  S
C3026      C3027   1.400       .  A
C3026      H4291   1.084       .  S
C3027      C3028   1.415       .  A
C3028      C3029   1.519       .  S
C3029      F3033   1.384       .  S
C3029      F3034   1.382       .  S
C3029      F3035   1.384       .  S
H3031      C4286   1.083       .  S
C3032      F3036   1.383       .  S
C3032      F4297   1.383       .  S
C3032      F4298   1.385       .  S
F3037      C4292   1.384   1_545  S
F3038      C4292   1.385   1_545  S
C3039      C3040   1.400       .  A
C3039      C3044   1.397       .  A
C3039      H3046   1.086       .  S
C3040      C3041   1.417       .  A
C3041      C3042   1.406       .  A
C3041      C3048   1.520       .  S
C3042      C3043   1.403       .  A
C3042      H3047   1.084       .  S
C3043      C3044   1.412       .  A
C3044      C3045   1.514       .  S
C3045      F3049   1.384       .  S
C3045      F3050   1.383       .  S
C3045      F3051   1.384       .  S
C3048      F3052   1.383       .  S
C3048      F3053   1.383       .  S
C3048      F3054   1.385       .  S
C3055      C3056   1.406       .  A
C3055      C3060   1.405       .  A
C3055      H3062   1.084       .  S
C3056      C3057   1.422       .  A
C3057      C3058   1.410       .  A
C3057      C3064   1.517       .  S
C3058      C3059   1.402       .  A
C3058      H3063   1.084       .  S
C3059      C3060   1.418       .  A
C3060      C3061   1.519       .  S
C3061      F3065   1.385       .  S
C3061      F3066   1.384       .  S
C3061      F3067   1.383       .  S
C3064      F3068   1.384       .  S
C3064      F3069   1.383       .  S
C3064      F3070   1.384       .  S
C3071      C3072   1.406       .  A
C3071      C3076   1.405       .  A
C3071      H3078   1.084       .  S
C3072      C3073   1.435       .  A
C3073      C3074   1.417       .  A
C3073      C3080   1.523       .  S
C3074      C3075   1.401       .  A
C3074      H3079   1.083       .  S
C3075      C3076   1.417       .  A
C3076      C3077   1.512       .  S
C3077      F3081   1.381       .  S
C3077      F3082   1.380       .  S
C3077      F3083   1.382       .  S
C3080      F3084   1.380       .  S
C3080      F3085   1.384       .  S
C3080      F3086   1.385       .  S
C3087      C3088   1.406       .  A
C3087      C3092   1.404       .  A
C3087      H3094   1.083       .  S
C3088      C3089   1.419       .  A
C3089      C3090   1.410       .  A
C3089      C3096   1.518       .  S
C3090      C3091   1.406       .  A
C3090      H3095   1.083       .  S
C3091      C3092   1.421       .  A
C3092      C3093   1.523       .  S
C3093      F3097   1.384       .  S
C3093      F3098   1.382       .  S
C3093      F3099   1.385       .  S
C3096      F3100   1.385       .  S
C3096      F3101   1.383       .  S
C3096      F3102   1.383       .  S
C3103      C3104   1.412       .  A
C3103      C3108   1.405       .  A
C3103      H3110   1.082       .  S
C3104      C3105   1.429       .  A
C3105      C3106   1.414       .  A
C3105      C3112   1.520       .  S
C3106      C3107   1.400       .  A
C3106      H3111   1.083       .  S
C3107      C3108   1.411       .  A
C3108      C3109   1.519       .  S
C3109      F3113   1.385       .  S
C3109      F3114   1.379       .  S
C3109      F3115   1.380       .  S
C3112      F3116   1.384       .  S
C3112      F3117   1.383       .  S
C3112      F3118   1.385       .  S
C3119      C3120   1.406       .  A
C3119      C3124   1.401       .  A
C3119      H3126   1.085       .  S
C3120      C3121   1.422       .  A
C3121      C3122   1.421       .  A
C3121      C3128   1.516       .  S
C3122      C3123   1.408       .  A
C3122      H3127   1.083       .  S
C3123      C3124   1.418       .  A
C3124      C3125   1.518       .  S
C3125      F3129   1.385       .  S
C3125      F3130   1.382       .  S
C3125      F3131   1.384       .  S
C3128      F3132   1.377       .  S
C3128      F3133   1.383       .  S
C3128      F3134   1.384       .  S
C3135      C3136   1.404       .  A
C3135      C3140   1.402       .  A
C3135      H3142   1.083       .  S
C3136      C3137   1.420       .  A
C3137      C3138   1.407       .  A
C3137      C3144   1.513       .  S
C3138      C3139   1.399       .  A
C3138      H3143   1.084       .  S
C3139      C3140   1.414       .  A
C3140      C3141   1.518       .  S
C3141      F3145   1.384       .  S
C3141      F3146   1.382       .  S
C3141      F3147   1.383       .  S
C3144      F3148   1.382       .  S
C3144      F3149   1.382       .  S
C3144      F3150   1.385       .  S
Fe3151     O3167   2.038       .  S
Fe3151     O3157   2.046       .  S
Fe3151     O3164   2.053       .  S
Fe3151     O3156   2.038       .  S
Fe3151     O3162   1.971       .  S
Fe3152     O3155   2.072       .  S
Fe3152     O3159   2.075       .  S
Fe3152     O3163   2.086       .  S
Fe3152     O3168   2.057       .  S
Fe3152     O3162   1.985       .  S
Fe3153     O3171   2.076       .  S
Fe3153     O3158   2.092       .  S
Fe3153     O3165   2.104       .  S
Fe3153     O3154   2.096       .  S
Fe3153     O3162   1.984       .  S
O3154      C3161   1.272       .  A
O3155      C3169   1.271       .  A
O3156      C3161   1.263       .  A
O3157      C3160   1.269       .  A
O3158      C3170   1.280       .  A
O3159      C3172   1.268       .  A
C3160      O3165   1.274       .  A
C3160      C3750   1.496       .  S
C3161      C3766   1.485       .  S
O3163      C3166   1.270       .  A
O3164      C3166   1.265       .  A
C3166      C3737   1.477       .  S
O3167      C3172   1.264       .  A
O3168      C3170   1.266       .  A
C3169      O3171   1.270       .  A
C3169      C3686   1.496       .  S
C3170      C3702   1.506       .  S
C3172      C3718   1.480       .  S
Fe3173     O3189   2.047       .  S
Fe3173     O3179   2.046       .  S
Fe3173     O3186   2.053       .  S
Fe3173     O3178   2.050       .  S
Fe3173     O3184   1.970       .  S
Fe3174     O3177   2.060   1_565  S
Fe3174     O3181   2.100       .  S
Fe3174     O3185   2.082       .  S
Fe3174     O3190   2.089   1_565  S
Fe3174     O4444   1.982       .  S
Fe3175     O3193   2.088       .  S
Fe3175     O3180   2.041       .  S
Fe3175     O3187   2.055       .  S
Fe3175     O3176   2.098       .  S
Fe3175     O3184   1.981       .  S
O3176      C3183   1.274       .  A
O3177      C3191   1.267       .  A
O3178      C3183   1.267       .  A
O3179      C3182   1.265       .  A
O3180      C4452   1.264       .  A
O3181      C4454   1.273       .  A
C3182      O3187   1.264       .  A
C3182      C3670   1.464       .  S
C3183      C3753   1.494       .  S
O3184     Fe4434   1.978       .  S
O3185      C4448   1.271       .  A
O3186      C3188   1.266       .  A
C3188      O4445   1.270       .  A
C3188      C3657   1.482       .  S
O3189      C3194   1.264       .  A
O3190      C3192   1.271       .  A
C3191      O4453   1.276   1_545  A
C3191      C3606   1.500       .  S
C3192      O4440   1.267   1_545  A
C3192      C3625   1.505       .  S
O3193      C4451   1.276       .  A
C3194      O4441   1.273       .  A
C3194      C3641   1.487       .  S
Fe3195     O3211   2.037       .  S
Fe3195     O3201   2.050       .  S
Fe3195     O3208   2.055       .  S
Fe3195     O3200   2.037       .  S
Fe3195     O3206   1.967       .  S
Fe3196     O3199   2.064   1_455  S
Fe3196     O3212   2.056   1_455  S
Fe3197     O3215   2.058       .  S
Fe3197     O3202   2.056       .  S
Fe3197     O3209   2.063       .  S
Fe3197     O3198   2.068       .  S
Fe3197     O3206   1.988       .  S
O3198      C3205   1.267       .  A
O3199      C3213   1.270   1_655  A
O3200      C3205   1.264       .  A
O3201      C3204   1.266       .  A
O3203      C3216   1.268       .  A
C3204      O3209   1.266       .  A
C3204      C3769   1.465       .  S
C3205      C3673   1.463       .  S
O3207      C3210   1.270       .  A
O3208      C3210   1.264       .  A
C3210      C3574   1.483       .  S
O3211      C3216   1.261       .  A
O3212      C3214   1.266       .  A
C3213      C3558   1.478   1_455  S
C3214      C3545   1.490       .  S
C3216      C3590   1.478       .  S
Fe3217     O3233   2.053       .  S
Fe3217     O3223   2.045       .  S
Fe3217     O3230   2.053       .  S
Fe3217     O3222   2.045       .  S
Fe3217     O3228   1.960       .  S
Fe3218     O3225   2.079       .  S
Fe3218     O3229   2.098       .  S
Fe3218     O3228   1.966       .  S
Fe3219     O3237   2.072       .  S
Fe3219     O3224   2.068       .  S
Fe3219     O3231   2.092       .  S
Fe3219     O3220   2.077       .  S
O3220      C3227   1.271       .  A
O3221      C3235   1.280       .  A
O3224      C3236   1.268       .  A
O3225      C3238   1.269       .  A
C3226      O3231   1.270       .  A
C3226      C3526   1.482       .  S
C3227      C3510   1.474       .  S
O3229      C3232   1.274       .  A
O3230      C3232   1.264       .  A
C3232      C3705   1.481       .  S
O3233      C3238   1.267       .  A
O3234      C3236   1.270       .  A
C3235      O3237   1.273       .  A
C3235      C3494   1.498       .  S
C3236      C3478   1.488       .  S
C3238      C3609   1.488       .  S
Fe3239     O3255   2.040       .  S
Fe3239     O3245   2.062       .  S
Fe3239     O3252   2.064       .  S
Fe3239     O3244   2.046       .  S
Fe3239     O3250   1.956       .  S
Fe3240     O3247   2.090       .  S
Fe3240     O3251   2.070       .  S
Fe3240     O3250   1.964       .  S
Fe3241     O3259   2.082       .  S
Fe3241     O3246   2.054       .  S
Fe3241     O3253   2.063       .  S
Fe3241     O3242   2.085       .  S
O3242      C3249   1.271       .  A
O3243      C3257   1.265       .  A
O3246      C3258   1.266       .  A
O3247      C3260   1.274       .  A
C3248      O3253   1.268       .  A
C3248      C3462   1.467       .  S
C3249      C3529   1.478       .  S
O3251      C3254   1.268       .  A
O3252      C3254   1.267       .  A
C3254      C3622   1.483       .  S
O3255      C3260   1.265       .  A
O3256      C3258   1.276       .  A
C3257      O3259   1.272       .  A
C3257      C3430   1.498       .  S
C3258      C3446   1.504       .  S
C3260      C3561   1.477       .  S
Fe3261     O3277   2.052       .  S
Fe3261     O3267   2.054       .  S
Fe3261     O3274   2.054       .  S
Fe3261     O3266   2.045       .  S
Fe3261     O3272   1.965       .  S
Fe3262     O3269   2.099       .  S
Fe3262     O3273   2.063       .  S
Fe3262     O3272   1.982       .  S
Fe3263     O3281   2.063       .  S
Fe3263     O3268   2.055       .  S
Fe3263     O3275   2.068       .  S
Fe3263     O3264   2.076       .  S
O3264      C3271   1.268       .  A
O3265      C3279   1.263       .  A
O3268      C3280   1.265       .  A
O3269      C3282   1.274       .  A
C3270      O3275   1.267       .  A
C3270      C3513   1.477       .  S
C3271      C3465   1.472       .  S
O3273      C3276   1.266       .  A
O3274      C3276   1.267       .  A
C3276      C3542   1.483       .  S
O3277      C3282   1.265       .  A
O3278      C3280   1.273       .  A
C3279      O3281   1.269       .  A
C3279      C3398   1.480       .  S
C3280      C3417   1.500       .  S
C3282      C3689   1.492       .  S
Fe3283     O3299   2.030       .  S
Fe3283     O3289   2.048       .  S
Fe3283     O3296   2.043       .  S
Fe3283     O3288   2.043       .  S
Fe3283     O3294   1.966       .  S
Fe3284     O3287   2.057       .  S
Fe3284     O3291   2.076       .  S
Fe3284     O3295   2.070       .  S
Fe3284     O3300   2.068       .  S
Fe3284     O3294   1.977       .  S
Fe3285     O3303   2.063       .  S
Fe3285     O3290   2.064       .  S
Fe3285     O3297   2.080       .  S
Fe3285     O3286   2.073       .  S
Fe3285     O3294   1.987       .  S
O3286      C3293   1.269       .  A
O3287      C3301   1.266       .  A
O3288      C3293   1.267       .  A
O3289      C3292   1.265       .  A
O3290      C3302   1.267       .  A
O3291      C3304   1.269       .  A
C3292      O3297   1.268       .  A
C3292      C3382   1.479       .  S
C3293      C4626   1.473       .  S
O3295      C3298   1.267       .  A
O3296      C3298   1.261       .  A
C3298      C3449   1.473       .  S
O3299      C3304   1.266       .  A
O3300      C3302   1.272       .  A
C3301      O3303   1.269       .  A
C3301      C3721   1.490       .  S
C3302      C3654   1.496       .  S
C3304      C3401   1.476       .  S
Fe3305     O3321   2.039       .  S
Fe3305     O3311   2.042       .  S
Fe3305     O3318   2.060       .  S
Fe3305     O3310   2.051       .  S
Fe3305     O3316   1.937       .  S
Fe3306     O3309   2.058       .  S
Fe3306     O3313   2.108       .  S
Fe3306     O3317   2.075       .  S
Fe3306     O3322   2.098       .  S
Fe3306     O3316   1.947       .  S
Fe3307     O3325   2.107       .  S
Fe3307     O3312   2.051       .  S
Fe3307     O3319   2.061       .  S
Fe3307     O3308   2.121       .  S
Fe3307     O3316   1.961       .  S
O3308      C3315   1.278       .  A
O3309      C3323   1.266       .  A
O3310      C3315   1.271       .  A
O3311      C3314   1.266       .  A
O3312      C3324   1.267       .  A
O3313      C3326   1.278       .  A
C3314      O3319   1.266       .  A
C3314      C4610   1.461       .  S
O3317      C3320   1.270       .  A
O3318      C3320   1.266       .  A
C3320      C3414   1.481       .  S
O3321      C3326   1.265       .  A
O3322      C3324   1.280       .  A
C3323      O3325   1.277       .  A
C3323      C3638   1.505       .  S
C3324      C3577   1.503       .  S
C3326      C3497   1.492       .  S
Fe3327     O3343   2.055       .  S
Fe3327     O3333   2.047       .  S
Fe3327     O3340   2.044       .  S
Fe3327     O3332   2.044       .  S
Fe3327     O3338   1.958       .  S
Fe3328     O3331   2.065       .  S
Fe3328     O3335   2.078       .  S
Fe3328     O3339   2.087       .  S
Fe3328     O3344   2.073       .  S
Fe3328     O3338   1.962       .  S
Fe3329     O3347   2.036       .  S
Fe3329     O3334   2.062       .  S
Fe3329     O3341   2.076       .  S
Fe3329     O3330   2.050       .  S
Fe3329     O3338   1.970       .  S
O3330      C3337   1.264       .  A
O3331      C3345   1.273       .  A
O3332      C3337   1.265       .  A
O3333      C3336   1.270       .  A
O3334      C3346   1.269       .  A
O3335      C3348   1.267       .  A
C3336      O3341   1.268       .  A
C3337      C3353   1.458       .  S
O3339      C3342   1.276       .  A
O3340      C3342   1.266       .  A
C3342      C3481   1.481       .  S
O3343      C3348   1.262       .  A
O3344      C3346   1.268       .  A
C3345      O3347   1.263       .  A
C3345      C3593   1.476       .  S
C3346      C3734   1.501       .  S
C3348      C3433   1.479       .  S
C3349      C3350   1.396       .  A
C3349      C3354   1.382       .  A
C3349      H4616   1.085   1_545  S
C3350      C4574   1.457   1_545  S
C3350      C3351   1.410       .  A
C3351      C3352   1.409       .  A
C3351      C3358   1.515       .  S
C3352      C3353   1.408       .  A
C3352      H3357   1.083       .  S
C3353      C3354   1.417       .  A
C3354      C3355   1.520       .  S
C3355      F3359   1.384   1_545  S
C3355      F3360   1.372       .  S
C3355      F3361   1.384       .  S
H3356      C4609   1.085       .  S
C3358      F3362   1.383       .  S
C3358      F3363   1.384       .  S
C3358      F3364   1.385       .  S
C3365      C3366   1.402       .  A
C3365      C3370   1.409       .  A
C3365      H3372   1.083       .  S
C3366      C4553   1.472   1_545  S
C3366      C3367   1.415       .  A
C3367      C3368   1.396       .  A
C3367      C3374   1.517       .  S
C3368      C3369   1.403       .  A
C3368      H3373   1.085       .  S
C3369      C3370   1.421       .  A
C3371      F3375   1.385       .  S
C3371      F3376   1.381       .  S
C3371      F3377   1.383       .  S
C3374      F3378   1.383       .  S
C3374      F3379   1.383       .  S
C3374      F3380   1.385       .  S
C3381      C3382   1.401       .  A
C3381      C3386   1.413       .  A
C3381      H3388   1.083       .  S
C3382      C3383   1.415       .  A
C3383      C3384   1.399       .  A
C3383      C3390   1.519       .  S
C3384      C3385   1.407       .  A
C3384      H3389   1.084       .  S
C3385      C3386   1.427       .  A
C3387      F3392   1.383       .  S
C3387      F3393   1.379       .  S
C3390      F3394   1.382       .  S
C3390      F3395   1.383       .  S
C3390      F3396   1.384       .  S
C3397      C3398   1.407       .  A
C3397      C3402   1.407       .  A
C3397      H3404   1.083       .  S
C3398      C3399   1.421       .  A
C3399      C3400   1.398       .  A
C3399      C3406   1.523       .  S
C3400      C3401   1.402       .  A
C3400      H3405   1.083       .  S
C3401      C3402   1.416       .  A
C3402      C3403   1.518       .  S
C3403      F3407   1.385       .  S
C3403      F3408   1.383       .  S
C3403      F3409   1.383       .  S
C3406      F3410   1.384       .  S
C3406      F3412   1.385       .  S
C3413      C3414   1.400       .  A
C3413      H3420   1.083       .  S
C3414      C3415   1.416       .  A
C3415      C3422   1.514       .  S
C3416      C3417   1.408       .  A
C3416      H3421   1.083       .  S
C3417      C3418   1.430       .  A
C3418      C3419   1.521       .  S
C3419      F3423   1.385       .  S
C3419      F3424   1.383       .  S
C3419      F3425   1.384       .  S
C3422      F3426   1.382       .  S
C3422      F3427   1.383       .  S
C3422      F3428   1.384       .  S
C3429      C3430   1.408       .  A
C3429      C3434   1.410   1_655  A
C3429      H3436   1.083       .  S
C3430      C3431   1.428       .  A
C3431      C3438   1.523       .  S
C3432      C3433   1.400       .  A
C3432      H3437   1.083       .  S
C3434      C3435   1.516       .  S
C3435      F3439   1.384   1_455  S
C3438      F3442   1.384       .  S
C3445      C3446   1.412       .  A
C3445      C4710   1.407   1_545  A
C3445      H3452   1.082       .  S
C3446      C3447   1.433       .  A
C3447      C4708   1.409   1_545  A
C3447      C3454   1.523       .  S
C3448      C4707   1.406       .  A
C3448      C3449   1.397       .  A
C3448      H3453   1.084       .  S
C3449      C3450   1.415       .  A
C3450      C4705   1.405       .  A
C3450      C3451   1.520       .  S
C3451      F3455   1.385       .  S
C3451      F3456   1.382       .  S
C3451      F3457   1.384       .  S
C3454      F3458   1.384       .  S
C3454      F3459   1.383       .  S
C3454      F3460   1.385       .  S
C3461      C3462   1.404       .  A
C3461      C3466   1.409       .  A
C3461      H3468   1.083       .  S
C3462      C3463   1.414       .  A
C3463      C3464   1.399       .  A
C3463      C3470   1.518   1_556  S
C3464      C3465   1.403       .  A
C3464      H3469   1.085   1_556  S
C3465      C3466   1.415       .  A
C3466      C3467   1.517       .  S
C3467      F3471   1.384       .  S
C3467      F3472   1.382       .  S
C3470      F3474   1.383       .  S
C3470      F3475   1.383       .  S
C3470      F3476   1.384       .  S
C3477      C3478   1.403       .  A
C3477      C3482   1.405       .  A
C3477      H3484   1.084       .  S
C3478      C3479   1.418       .  A
C3479      C3480   1.406       .  A
C3479      C3486   1.506       .  S
C3480      C3481   1.400       .  A
C3480      H3485   1.083       .  S
C3481      C3482   1.422       .  A
C3482      C3483   1.521       .  S
C3483      F3487   1.385       .  S
C3483      F3488   1.383       .  S
C3483      F3489   1.382       .  S
C3486      F3490   1.382       .  S
C3486      F3491   1.382   1_556  S
C3486      F3492   1.385       .  S
C3493      C3494   1.404       .  A
C3493      C3498   1.404   1_545  A
C3493      H3500   1.083       .  S
C3494      C3495   1.424       .  A
C3495      C4756   1.416   1_545  A
C3495      C3502   1.518       .  S
C3496      C4755   1.413       .  A
C3496      C3497   1.407       .  A
C3496      H3501   1.083       .  S
C3497      C4758   1.425       .  A
C3498      C4757   1.425       .  A
C3498      C4759   1.521       .  S
C3499      C4758   1.522       .  S
C3499      F4763   1.385       .  S
C3499      F3504   1.379       .  S
C3499      F4765   1.383       .  S
C3502      F3506   1.383       .  S
C3502      F3507   1.382       .  S
C3502      F4768   1.385   1_545  S
F3503      C4759   1.385   1_545  S
F3505      C4759   1.383   1_545  S
F3508      C4762   1.385       .  S
C3509      C3510   1.402       .  A
C3509      C3514   1.394       .  A
C3509      H3516   1.089   1_556  S
C3510      C3511   1.414       .  A
C3511      C3512   1.411       .  A
C3511      C3518   1.514       .  S
C3512      C3513   1.407       .  A
C3512      H3517   1.088       .  S
C3513      C3514   1.414       .  A
C3514      C3515   1.517   1_556  S
C3515      F3519   1.383       .  S
C3515      F3520   1.384       .  S
C3518      F3522   1.383       .  S
C3518      F3523   1.378       .  S
C3518      F3524   1.385       .  S
C3525      C3526   1.404       .  A
C3525      C3530   1.403       .  A
C3525      H3532   1.085       .  S
C3526      C3527   1.419       .  A
C3527      C3528   1.409       .  A
C3528      C3529   1.402       .  A
C3529      C3530   1.415       .  A
C3530      C3531   1.514       .  S
C3531      F3535   1.384       .  S
C3531      F3536   1.383   1_556  S
C3531      F3537   1.382       .  S
C3534      F3538   1.382       .  S
C3534      F3540   1.385       .  S
C3541      C3542   1.402       .  A
C3541      C3546   1.405       .  A
C3541      H3548   1.083       .  S
C3542      C3543   1.420       .  A
C3543      C3544   1.407       .  A
C3543      C3550   1.521       .  S
C3544      C3545   1.406       .  A
C3544      H3549   1.083   1_655  S
C3545      C3546   1.425       .  A
C3546      C3547   1.522       .  S
C3547      F3551   1.385       .  S
C3547      F3552   1.383       .  S
C3547      F3553   1.383       .  S
C3550      F3554   1.383       .  S
C3550      F3555   1.383       .  S
C3550      F3556   1.384   1_655  S
C3557      C3558   1.401       .  A
C3557      C3562   1.402       .  A
C3557      H3564   1.083       .  S
C3558      C3559   1.417       .  A
C3559      C3560   1.406       .  A
C3560      C3561   1.403       .  A
C3560      H3565   1.085       .  S
C3561      C3562   1.420       .  A
C3562      C3563   1.520       .  S
C3563      F3567   1.385       .  S
C3563      F3568   1.382       .  S
C3563      F3569   1.382       .  S
C3566      F3570   1.383       .  S
C3566      F3571   1.382       .  S
C3566      F3572   1.385       .  S
C3573      C3574   1.399       .  A
C3573      C3578   1.411       .  A
C3573      H3580   1.084       .  S
C3574      C3575   1.414       .  A
C3575      C3576   1.405       .  A
C3575      C3582   1.515       .  S
C3576      C3577   1.409       .  A
C3576      H3581   1.082       .  S
C3577      C3578   1.433       .  A
C3578      C3579   1.522       .  S
C3579      F3583   1.385       .  S
C3579      F3584   1.383       .  S
C3579      F3585   1.384       .  S
C3582      F3586   1.382       .  S
C3582      F3587   1.383       .  S
C3582      F3588   1.385       .  S
C3589      C3590   1.405       .  A
C3589      C3594   1.403       .  A
C3590      C3591   1.420       .  A
C3591      C3592   1.398       .  A
C3591      C3598   1.520       .  S
C3592      C3593   1.402       .  A
C3592      H3597   1.083       .  S
C3593      C3594   1.421       .  A
C3595      F3599   1.385   1_455  S
C3595      F3601   1.382       .  S
C3598      F3602   1.385       .  S
C3598      F3603   1.383       .  S
C3598      F3604   1.378       .  S
C3605      C3606   1.409       .  A
C3605      C3610   1.412       .  A
C3605      H3612   1.083   1_545  S
C3606      C3607   1.429       .  A
C3607      C3608   1.406       .  A
C3607      C4874   1.522       .  S
C3608      C3609   1.401       .  A
C3608      H3613   1.083       .  S
C3609      C3610   1.419       .  A
C3610      C3611   1.519       .  S
C3611      F3615   1.385   1_545  S
C3611      F3616   1.383       .  S
C3611      F3617   1.382       .  S
C3614      C4867   1.523       .  S
C3614      F3618   1.385       .  S
C3614      F4879   1.382       .  S
C3614      F4880   1.381       .  S
F3619      C4874   1.382       .  S
F3620      C4874   1.382       .  S
C3621      C3622   1.404       .  A
C3621      C3626   1.411       .  A
C3621      H3628   1.082       .  S
C3622      C3623   1.413       .  A
C3623      C3624   1.406       .  A
C3623      C3630   1.522       .  S
C3624      C3625   1.414       .  A
C3624      H3629   1.082   1_545  S
C3625      C3626   1.426       .  A
C3626      C3627   1.520       .  S
C3627      F3631   1.385       .  S
C3627      F3632   1.383       .  S
C3627      F4893   1.381       .  S
C3630      F3634   1.383       .  S
C3630      F3635   1.383       .  S
C3630      F3636   1.384   1_545  S
F3633      C4887   1.381       .  S
C3637      C3638   1.411       .  A
C3637      C3642   1.416       .  A
C3637      H3644   1.084       .  S
C3638      C3639   1.430       .  A
C3639      C3640   1.409       .  A
C3639      C3646   1.523       .  S
C3640      C3641   1.399       .  A
C3640      H3645   1.084       .  S
C3641      C3642   1.416       .  A
C3642      C4903   1.516       .  S
C3643      C4902   1.518       .  S
C3643      F3647   1.384       .  S
C3643      F3648   1.384       .  S
C3643      F3649   1.383   1_565  S
C3646      F3650   1.384       .  S
C3646      F3651   1.384       .  S
C3646      F3652   1.385       .  S
C3653      C3654   1.408       .  A
C3653      C3658   1.403       .  A
C3653      H3660   1.082       .  S
C3654      C3655   1.427       .  A
C3655      C3656   1.411       .  A
C3655      C3662   1.521       .  S
C3656      C3657   1.403       .  A
C3656      H4921   1.083       .  S
C3657      C3658   1.415       .  A
C3658      C3659   1.518       .  S
C3659      F3663   1.385       .  S
C3659      F3664   1.382       .  S
C3659      F3665   1.384       .  S
H3661      C4916   1.083       .  S
C3662      F3666   1.383       .  S
C3662      F4927   1.384       .  S
C3662      F4928   1.385       .  S
F3667      C4922   1.383   1_545  S
F3668      C4922   1.385   1_545  S
C3669      C3670   1.401       .  A
C3669      C3674   1.399       .  A
C3669      H3676   1.085       .  S
C3670      C3671   1.417       .  A
C3671      C3672   1.404       .  A
C3671      C3678   1.520       .  S
C3672      C3673   1.401       .  A
C3672      H3677   1.084       .  S
C3673      C3674   1.412       .  A
C3674      C3675   1.515       .  S
C3675      F3679   1.384       .  S
C3675      F3680   1.383       .  S
C3675      F3681   1.384       .  S
C3678      F3682   1.384       .  S
C3678      F3683   1.382       .  S
C3678      F3684   1.384       .  S
C3685      C3686   1.406       .  A
C3685      C3690   1.407       .  A
C3685      H3692   1.084       .  S
C3686      C3687   1.421       .  A
C3687      C3688   1.414       .  A
C3687      C3694   1.517       .  S
C3688      C3689   1.405       .  A
C3688      H3693   1.084       .  S
C3689      C3690   1.421       .  A
C3690      C3691   1.521       .  S
C3691      F3695   1.385       .  S
C3691      F3696   1.384       .  S
C3691      F3697   1.382       .  S
C3694      F3698   1.385       .  S
C3694      F3699   1.382       .  S
C3694      F3700   1.384       .  S
C3701      C3702   1.405       .  A
C3701      C3706   1.402       .  A
C3701      H3708   1.085       .  S
C3702      C3703   1.435       .  A
C3703      C3704   1.414       .  A
C3703      C3710   1.523       .  S
C3704      C3705   1.398       .  A
C3704      H3709   1.084       .  S
C3705      C3706   1.417       .  A
C3706      C3707   1.512       .  S
C3707      F3711   1.381       .  S
C3707      F3712   1.380       .  S
C3707      F3713   1.381       .  S
C3710      F3714   1.379       .  S
C3710      F3715   1.383       .  S
C3710      F3716   1.385       .  S
C3717      C3718   1.402       .  A
C3717      C3722   1.404       .  A
C3717      H3724   1.084       .  S
C3718      C3719   1.416       .  A
C3719      C3720   1.408       .  A
C3719      C3726   1.520       .  S
C3720      C3721   1.409       .  A
C3720      H3725   1.083       .  S
C3721      C3722   1.424       .  A
C3722      C3723   1.523       .  S
C3723      F3727   1.384       .  S
C3723      F3728   1.383       .  S
C3723      F3729   1.385       .  S
C3726      F3730   1.384       .  S
C3726      F3731   1.384       .  S
C3726      F3732   1.383       .  S
C3733      C3734   1.411       .  A
C3733      C3738   1.404       .  A
C3733      H3740   1.082       .  S
C3734      C3735   1.427       .  A
C3735      C3736   1.414       .  A
C3735      C3742   1.519       .  S
C3736      C3737   1.401       .  A
C3736      H3741   1.083       .  S
C3737      C3738   1.411       .  A
C3738      C3739   1.519       .  S
C3739      F3743   1.385       .  S
C3739      F3744   1.378       .  S
C3739      F3745   1.377       .  S
C3742      F3746   1.384       .  S
C3742      F3747   1.383       .  S
C3742      F3748   1.385       .  S
C3749      C3750   1.406       .  A
C3749      C3754   1.399       .  A
C3749      H3756   1.085       .  S
C3750      C3751   1.421       .  A
C3751      C3752   1.419       .  A
C3751      C3758   1.517       .  S
C3752      C3753   1.409       .  A
C3752      H3757   1.083       .  S
C3753      C3754   1.419       .  A
C3754      C3755   1.519       .  S
C3755      F3759   1.385       .  S
C3755      F3760   1.383       .  S
C3755      F3761   1.383       .  S
C3758      F3762   1.377       .  S
C3758      F3763   1.383       .  S
C3758      F3764   1.385       .  S
C3765      C3766   1.403       .  A
C3765      C3770   1.397       .  A
C3765      H3772   1.092       .  S
C3766      C3767   1.421       .  A
C3767      C3768   1.408       .  A
C3767      C3774   1.512       .  S
C3768      C3769   1.399       .  A
C3768      H3773   1.086       .  S
C3769      C3770   1.413       .  A
C3770      C3771   1.520       .  S
C3771      F3775   1.383       .  S
C3771      F3776   1.383       .  S
C3771      F3777   1.383       .  S
C3774      F3778   1.383       .  S
C3774      F3779   1.381       .  S
C3774      F3780   1.385       .  S
Fe3781     O3797   2.036       .  S
Fe3781     O3787   2.045       .  S
Fe3781     O3794   2.049       .  S
Fe3781     O3786   2.041       .  S
Fe3781     O3792   1.968       .  S
Fe3782     O3785   2.087       .  S
Fe3782     O3789   2.077       .  S
Fe3782     O3793   2.103       .  S
Fe3782     O3798   2.056       .  S
Fe3782     O3792   1.988       .  S
Fe3783     O3801   2.072       .  S
Fe3783     O3788   2.078       .  S
Fe3783     O3795   2.094       .  S
Fe3783     O3784   2.101       .  S
Fe3783     O3792   1.987       .  S
O3784      C3791   1.274       .  A
O3785      C3799   1.275       .  A
O3786      C3791   1.264       .  A
O3787      C3790   1.268       .  A
O3788      C3800   1.277       .  A
O3789      C3802   1.268       .  A
C3790      O3795   1.271       .  A
C3790      C4380   1.493       .  S
C3791      C4396   1.486       .  S
O3793      C3796   1.274       .  A
O3794      C3796   1.266       .  A
C3796      C4367   1.494       .  S
O3797      C3802   1.264       .  A
O3798      C3800   1.265       .  A
C3799      O3801   1.270       .  A
C3799      C4316   1.501       .  S
C3800      C4332   1.502       .  S
C3802      C4348   1.483       .  S
Fe3803     O3819   2.046       .  S
Fe3803     O3809   2.038       .  S
Fe3803     O3816   2.045       .  S
Fe3803     O3808   2.046       .  S
Fe3803     O3814   1.966       .  S
Fe3804     O3807   2.056       .  S
Fe3804     O3811   2.087       .  S
Fe3804     O3815   2.068       .  S
Fe3804     O3820   2.078       .  S
Fe3805     O3823   2.084       .  S
Fe3805     O3810   2.040       .  S
Fe3805     O3817   2.057       .  S
Fe3805     O3806   2.094       .  S
Fe3805     O3814   1.987       .  S
O3806      C3813   1.272       .  A
O3807      C3821   1.266       .  A
O3808      C3813   1.266       .  A
O3809      C3812   1.264       .  A
C3812      O3817   1.264       .  A
C3812      C4300   1.461       .  S
C3813      C4383   1.488       .  S
O3816      C3818   1.263       .  A
C3818      C4287   1.484       .  S
O3819      C3824   1.265       .  A
O3820      C3822   1.268       .  A
C3821      C4236   1.503       .  S
C3822      C4255   1.494       .  S
C3824      C4271   1.480       .  S
Fe3825     O3841   2.028       .  S
Fe3825     O3831   2.072       .  S
Fe3825     O3838   2.064       .  S
Fe3825     O3830   2.040       .  S
Fe3825     O3836   1.953       .  S
Fe3826     O3829   2.077       .  S
Fe3826     O3842   2.054   1_455  S
Fe3827     O3845   2.053       .  S
Fe3827     O3832   2.064       .  S
Fe3827     O3839   2.078       .  S
Fe3827     O3828   2.061       .  S
Fe3827     O3836   1.965       .  S
O3828      C3835   1.266       .  A
O3829      C3843   1.274       .  A
O3830      C3835   1.264       .  A
O3831      C3834   1.270       .  A
O3833      C3846   1.271       .  A
C3834      O3839   1.270       .  A
C3834      C4399   1.480       .  S
C3835      C4303   1.464       .  S
O3837      C3840   1.269       .  A
O3838      C3840   1.267       .  A
C3840      C4204   1.472       .  S
O3841      C3846   1.262       .  A
O3842      C3844   1.264   1_655  A
C3843      C4188   1.491   1_455  S
C3844      C4175   1.490   1_455  S
C3846      C4220   1.472       .  S
Fe3847     O3863   2.050       .  S
Fe3847     O3853   2.042       .  S
Fe3847     O3860   2.047       .  S
Fe3847     O3852   2.051   1_554  S
Fe3847     O3858   1.962   1_554  S
Fe3848     O4481   2.076   1_554  S
Fe3848     O3855   2.082       .  S
Fe3848     O3859   2.098       .  S
Fe3848     O4494   2.076   1_554  S
Fe3848     O3858   1.965   1_554  S
Fe3849     O3867   2.067       .  S
Fe3849     O3854   2.072       .  S
Fe3849     O3861   2.103       .  S
Fe3849     O3850   2.072       .  S
Fe3849     O4488   1.964       .  S
O3850      C3857   1.270       .  A
O3851     Fe4478   2.079       .  S
O3851      C3865   1.279       .  A
O3852      C4487   1.270       .  A
O3853      C4486   1.263   1_554  A
O3854      C3866   1.269       .  A
O3855      C3868   1.270       .  A
C3856      O4483   1.263       .  A
C3856      O3861   1.272       .  A
C3856      C4156   1.487       .  S
C3857      O4482   1.270       .  A
C3857      C4140   1.470       .  S
O3858     Fe4479   1.977       .  S
O3859      C3862   1.275       .  A
O3860      C3862   1.264       .  A
C3862      C4335   1.478       .  S
O3863      C3868   1.266       .  A
O3864     Fe4478   2.071       .  S
O3864      C3866   1.268       .  A
C3865      O3867   1.274       .  A
C3865      C4124   1.487       .  S
C3866      C4108   1.490       .  S
C3868      C4239   1.487       .  S
Fe3869     O3885   2.040       .  S
Fe3869     O3875   2.051       .  S
Fe3869     O3882   2.047       .  S
Fe3869     O3874   2.050       .  S
Fe3869     O3880   1.969       .  S
Fe3870     O4503   2.058   1_554  S
Fe3870     O3877   2.083       .  S
Fe3870     O3881   2.067       .  S
Fe3870     O4516   2.076   1_554  S
Fe3870     O3880   1.981       .  S
Fe3871     O3889   2.083       .  S
Fe3871     O3876   2.062       .  S
Fe3871     O3883   2.074       .  S
Fe3871     O3872   2.088       .  S
Fe3871     O4510   1.984       .  S
O3872      C3879   1.272       .  A
O3873     Fe4500   2.065       .  S
O3873      C3887   1.267       .  A
O3874      C4509   1.266   1_554  A
O3875      C4508   1.266   1_554  A
O3876      C3888   1.267       .  A
O3877      C3890   1.273       .  A
C3878      O4505   1.266       .  A
C3878      O3883   1.269       .  A
C3878      C4092   1.472       .  S
C3879      O4504   1.265       .  A
C3879      C4159   1.477       .  S
O3880     Fe4501   1.986   1_554  S
O3881      C3884   1.265       .  A
O3882      C3884   1.264       .  A
C3884      C4252   1.474       .  S
O3885      C3890   1.264       .  A
O3886     Fe4500   2.075       .  S
O3886      C3888   1.273       .  A
C3887      O3889   1.273       .  A
C3887      C4060   1.503       .  S
C3888      C4076   1.500       .  S
C3890      C4191   1.475       .  S
Fe3891     O3907   2.050       .  S
Fe3891     O3897   2.057       .  S
Fe3891     O3904   2.053       .  S
Fe3891     O3896   2.044       .  S
Fe3891     O3902   1.961       .  S
Fe3892     O4525   2.046   1_554  S
Fe3892     O3899   2.098       .  S
Fe3892     O3903   2.052       .  S
Fe3892     O4538   2.085   1_554  S
Fe3892     O3902   1.977       .  S
Fe3893     O3911   2.066       .  S
Fe3893     O3898   2.044       .  S
Fe3893     O3905   2.061       .  S
Fe3893     O3894   2.080       .  S
Fe3893     O4532   1.986       .  S
O3894      C3901   1.268       .  A
O3895     Fe4522   2.056       .  S
O3895      C3909   1.265       .  A
O3896      C4531   1.263   1_554  A
O3897      C4530   1.271   1_554  A
O3898      C3910   1.263       .  A
O3899      C3912   1.274       .  A
C3900      O4527   1.269       .  A
C3900      O3905   1.266       .  A
C3900      C4143   1.475       .  S
C3901      O4526   1.264       .  A
C3901      C4095   1.478       .  S
O3902     Fe4523   1.985   1_554  S
O3903      C3906   1.264       .  A
O3904      C3906   1.268       .  A
C3906      C4172   1.473       .  S
O3907      C3912   1.264       .  A
O3908     Fe4522   2.087       .  S
O3908      C3910   1.275       .  A
C3909      O3911   1.270       .  A
C3909      C4028   1.488       .  S
C3910      C4047   1.496       .  S
C3912      C4319   1.493       .  S
Fe3913     O3929   2.042       .  S
Fe3913     O3919   2.054       .  S
Fe3913     O3926   2.054       .  S
Fe3913     O3918   2.045       .  S
Fe3913     O3924   1.970       .  S
Fe3914     O3917   2.056       .  S
Fe3914     O3921   2.080       .  S
Fe3914     O3925   2.066       .  S
Fe3914     O3930   2.070       .  S
Fe3914     O3924   1.977       .  S
Fe3915     O3933   2.066       .  S
Fe3915     O3920   2.067       .  S
Fe3915     O3927   2.085       .  S
Fe3915     O3916   2.075       .  S
Fe3915     O3924   1.989       .  S
O3916      C3923   1.269       .  A
O3917      C3931   1.267       .  A
O3918      C3923   1.267       .  A
O3919      C3922   1.266       .  A
O3920      C3932   1.267       .  A
O3921      C3934   1.270       .  A
C3922      O3927   1.269       .  A
C3922      C4012   1.481       .  S
O3925      C3928   1.267       .  A
O3926      C3928   1.264       .  A
C3928      C4079   1.474       .  S
O3929      C3934   1.266       .  A
O3930      C3932   1.270       .  A
C3931      O3933   1.271       .  A
C3931      C4351   1.483       .  S
C3932      C4284   1.493       .  S
C3934      C4031   1.482       .  S
Fe3935     O3951   2.037       .  S
Fe3935     O3941   2.045       .  S
Fe3935     O3948   2.062       .  S
Fe3935     O3940   2.060       .  S
Fe3935     O3946   1.939       .  S
Fe3936     O3939   2.055       .  S
Fe3936     O3943   2.111       .  S
Fe3936     O3947   2.074       .  S
Fe3936     O3952   2.105       .  S
Fe3936     O3946   1.951       .  S
Fe3937     O3955   2.093       .  S
Fe3937     O3942   2.045       .  S
Fe3937     O3949   2.065       .  S
Fe3937     O3938   2.103       .  S
Fe3937     O3946   1.957       .  S
O3938      C3945   1.274       .  A
O3939      C3953   1.265       .  A
O3940      C3945   1.272       .  A
O3941      C3944   1.268       .  A
O3942      C3954   1.266       .  A
O3943      C3956   1.279       .  A
C3944      O3949   1.267       .  A
O3947      C3950   1.269       .  A
O3948      C3950   1.266       .  A
C3950      C4044   1.477       .  S
O3951      C3956   1.265       .  A
O3952      C3954   1.280       .  A
C3953      O3955   1.274       .  A
C3953      C4268   1.495       .  S
C3954      C4207   1.494       .  S
C3956      C4127   1.491       .  S
Fe3957     O3973   2.064       .  S
Fe3957     O3963   2.039       .  S
Fe3957     O3970   2.037       .  S
Fe3957     O3962   2.050       .  S
Fe3957     O3968   1.953       .  S
Fe3958     O3961   2.067       .  S
Fe3958     O3965   2.076       .  S
Fe3958     O3969   2.090       .  S
Fe3958     O3974   2.069       .  S
Fe3958     O3968   1.956       .  S
Fe3959     O3977   2.044       .  S
Fe3959     O3964   2.086       .  S
Fe3959     O3971   2.096       .  S
Fe3959     O3960   2.074       .  S
Fe3959     O3968   1.967       .  S
O3960      C3967   1.268       .  A
O3961      C3975   1.273       .  A
O3962      C3967   1.265       .  A
O3963      C3966   1.269       .  A
O3964      C3976   1.274       .  A
O3965      C3978   1.265       .  A
C3966      O3971   1.273       .  A
C3967      C3983   1.475       .  S
O3969      C3972   1.278       .  A
O3970      C3972   1.265       .  A
C3972      C4111   1.476       .  S
O3973      C3978   1.263       .  A
O3974      C3976   1.269       .  A
C3975      O3977   1.266       .  A
C3975      C4223   1.475       .  S
C3976      C4364   1.498       .  S
C3978      C4063   1.488       .  S
C3979      C3980   1.396       .  A
C3979      C3984   1.387       .  A
C3980      C3981   1.414       .  A
C3981      C3982   1.416       .  A
C3981      C3988   1.514       .  S
C3982      C3983   1.410       .  A
C3982      H3987   1.082       .  S
C3983      C3984   1.420       .  A
C3984      C3985   1.518       .  S
C3985      F3989   1.384       .  S
C3985      F3990   1.370       .  S
C3985      F3991   1.383       .  S
C3988      F3992   1.383       .  S
C3988      F3993   1.383       .  S
C3988      F3994   1.385       .  S
C3995      C3996   1.402       .  A
C3995      C4000   1.408       .  A
C3995      H4002   1.084       .  S
C3996      C3997   1.416       .  A
C3997      C3998   1.398       .  A
C3997      C4004   1.517       .  S
C3998      C3999   1.404       .  A
C3998      H4003   1.085       .  S
C3999      C4000   1.422       .  A
C4001      F4005   1.384       .  S
C4001      F4006   1.380       .  S
C4001      F4007   1.383       .  S
C4004      F4008   1.383       .  S
C4004      F4009   1.383       .  S
C4004      F4010   1.384       .  S
C4011      C4012   1.402       .  A
C4011      C4016   1.416       .  A
C4011      H4018   1.083       .  S
C4012      C4013   1.415       .  A
C4013      C4014   1.402       .  A
C4013      C4020   1.519       .  S
C4014      C4015   1.407       .  A
C4014      H4019   1.085       .  S
C4015      C4016   1.427       .  A
C4017      F4022   1.383       .  S
C4017      F4023   1.379       .  S
C4020      F4024   1.383       .  S
C4020      F4025   1.383       .  S
C4020      F4026   1.384       .  S
C4027      C4028   1.407       .  A
C4027      C4032   1.408       .  A
C4027      H4034   1.083       .  S
C4028      C4029   1.423       .  A
C4029      C4030   1.405       .  A
C4029      C4036   1.522       .  S
C4030      C4031   1.403       .  A
C4030      H4035   1.083       .  S
C4031      C4032   1.417       .  A
C4032      C4033   1.519       .  S
C4033      F4037   1.385       .  S
C4033      F4038   1.383       .  S
C4033      F4039   1.383       .  S
C4036      F4040   1.384       .  S
C4036      F4671   1.383       .  S
C4036      F4042   1.385       .  S
F4041      C4666   1.382   1_554  S
C4043      C4044   1.396       .  A
C4043      H4050   1.083       .  S
C4044      C4045   1.414       .  A
C4045      C4052   1.515       .  S
C4046      C4047   1.406       .  A
C4046      H4051   1.083       .  S
C4047      C4048   1.432       .  A
C4048      C4049   1.522       .  S
C4049      F4053   1.385       .  S
C4049      F4054   1.383       .  S
C4049      F4055   1.384       .  S
C4052      F4056   1.382       .  S
C4052      F4057   1.383       .  S
C4052      F4058   1.384       .  S
C4059      C4060   1.410       .  A
C4059      C4064   1.412   1_655  A
C4059      H4066   1.082       .  S
C4060      C4061   1.428       .  A
C4061      C4068   1.522       .  S
C4062      C4063   1.400       .  A
C4062      H4067   1.083       .  S
C4064      C4065   1.517       .  S
C4065      F4069   1.385   1_455  S
C4068      F4072   1.384       .  S
C4068      F4703   1.384       .  S
F4073      C4698   1.384   1_554  S
C4075      C4076   1.411       .  A
C4075      H4082   1.082       .  S
C4076      C4077   1.429       .  A
C4077      C4084   1.520       .  S
C4078      C4079   1.396   1_545  A
C4078      H4083   1.084   1_545  S
C4079      C4080   1.411       .  A
C4080      C4081   1.518       .  S
C4081      F4085   1.385       .  S
C4081      F4086   1.382       .  S
C4081      F4087   1.384       .  S
C4084      F4088   1.383       .  S
C4084      F4089   1.383       .  S
C4084      F4090   1.385       .  S
C4091      C4092   1.405       .  A
C4091      C4096   1.412       .  A
C4091      H4098   1.084       .  S
C4092      C4093   1.413       .  A
C4093      C4094   1.399       .  A
C4093      C4100   1.517       .  S
C4094      C4095   1.403       .  A
C4094      H4099   1.086       .  S
C4095      C4096   1.417       .  A
C4096      C4097   1.517       .  S
C4097      F4101   1.384       .  S
C4097      F4102   1.383       .  S
C4097      F4733   1.384       .  S
C4100      F4104   1.384       .  S
C4100      F4105   1.383       .  S
C4100      F4106   1.384       .  S
F4103      C4727   1.383       .  S
C4107      C4108   1.406       .  A
C4107      C4112   1.406       .  A
C4107      H4114   1.084       .  S
C4108      C4109   1.419       .  A
C4109      C4110   1.403       .  A
C4109      C4116   1.506       .  S
C4110      C4111   1.397       .  A
C4110      H4115   1.083       .  S
C4111      C4112   1.421       .  A
C4112      C4113   1.523       .  S
C4113      F4117   1.385       .  S
C4113      F4118   1.384       .  S
C4113      F4119   1.382       .  S
C4116      F4120   1.379       .  S
C4116      F4121   1.382       .  S
C4116      F4122   1.385       .  S
C4123      C4124   1.403       .  A
C4123      C4128   1.400       .  A
C4123      H4130   1.083       .  S
C4124      C4125   1.419       .  A
C4125      C4132   1.518       .  S
C4126      C4127   1.406       .  A
C4126      H4131   1.084       .  S
C4129      F4134   1.380       .  S
C4132      F4136   1.382       .  S
C4132      F4137   1.382       .  S
C4139      C4140   1.402       .  A
C4139      C4144   1.395       .  A
C4139      H4146   1.089       .  S
C4140      C4141   1.413       .  A
C4141      C4142   1.410       .  A
C4141      C4148   1.515       .  S
C4142      C4143   1.407       .  A
C4142      H4147   1.085       .  S
C4143      C4144   1.414       .  A
C4144      C4145   1.517       .  S
C4145      F4149   1.384       .  S
C4145      F4150   1.384       .  S
C4145      F4781   1.383       .  S
C4148      F4152   1.383       .  S
C4148      F4153   1.378       .  S
C4148      F4154   1.384       .  S
F4151      C4775   1.383       .  S
C4155      C4156   1.405       .  A
C4155      C4160   1.406       .  A
C4155      H4162   1.083       .  S
C4156      C4157   1.420       .  A
C4157      C4158   1.409       .  A
C4157      C4794   1.513       .  S
C4158      C4159   1.401       .  A
C4158      H4793   1.083       .  S
C4159      C4160   1.414       .  A
C4160      C4161   1.516       .  S
C4161      F4165   1.384       .  S
C4161      F4166   1.382       .  S
C4161      F4167   1.382       .  S
H4163      C4788   1.083       .  S
C4164      C4787   1.512       .  S
C4164      F4168   1.381       .  S
C4164      F4799   1.383       .  S
C4164      F4170   1.384       .  S
F4169      C4794   1.383       .  S
C4171      C4172   1.399       .  A
C4171      C4176   1.403       .  A
C4171      H4178   1.083       .  S
C4172      C4173   1.416       .  A
C4173      C4174   1.403       .  A
C4173      C4180   1.522       .  S
C4174      C4175   1.409       .  A
C4174      H4179   1.082   1_655  S
C4175      C4176   1.427       .  A
C4176      C4177   1.523       .  S
C4177      F4181   1.385       .  S
C4177      F4182   1.383       .  S
C4177      F4183   1.384       .  S
C4180      F4184   1.382       .  S
C4180      F4185   1.383       .  S
C4180      F4186   1.385   1_655  S
C4187      C4188   1.406       .  A
C4187      C4192   1.404       .  A
C4187      H4194   1.082       .  S
C4188      C4189   1.428       .  A
C4189      C4190   1.408       .  A
C4190      C4191   1.399       .  A
C4190      H4195   1.084       .  S
C4191      C4192   1.417       .  A
C4192      C4193   1.521       .  S
C4193      F4197   1.384       .  S
C4193      F4198   1.383       .  S
C4193      F4199   1.382       .  S
C4196      F4200   1.383       .  S
C4196      F4201   1.383       .  S
C4196      F4202   1.385       .  S
C4203      C4204   1.397       .  A
C4203      C4208   1.407       .  A
C4203      H4210   1.084       .  S
C4204      C4205   1.415       .  A
C4205      C4206   1.406       .  A
C4205      C4212   1.516       .  S
C4206      C4207   1.406       .  A
C4206      H4211   1.084       .  S
C4207      C4208   1.430       .  A
C4208      C4209   1.523       .  S
C4209      F4213   1.385       .  S
C4209      F4214   1.384       .  S
C4209      F4215   1.383       .  S
C4212      F4216   1.383       .  S
C4212      F4217   1.382       .  S
C4212      F4218   1.384       .  S
C4219      C4220   1.402       .  A
C4219      C4224   1.403       .  A
C4220      C4221   1.418       .  A
C4221      C4222   1.399       .  A
C4221      C4228   1.519       .  S
C4222      C4223   1.402       .  A
C4222      H4227   1.083       .  S
C4223      C4224   1.421       .  A
C4225      F4229   1.385   1_455  S
C4225      F4231   1.381       .  S
C4228      F4232   1.385       .  S
C4228      F4233   1.383       .  S
C4228      F4234   1.381       .  S
C4235      C4236   1.409       .  A
C4235      C4240   1.412       .  A
C4235      H4242   1.083       .  S
C4236      C4237   1.431       .  A
C4237      C4238   1.407       .  A
C4238      C4239   1.400       .  A
C4238      H4243   1.084       .  S
C4239      C4240   1.417       .  A
C4240      C4241   1.517       .  S
C4241      F4245   1.384       .  S
C4241      F4246   1.381       .  S
C4241      F4247   1.383       .  S
C4244      F4248   1.385       .  S
C4251      C4252   1.403       .  A
C4251      C4256   1.407       .  A
C4251      H4258   1.083       .  S
C4252      C4253   1.411       .  A
C4253      C4254   1.404       .  A
C4253      C4260   1.520       .  S
C4254      C4255   1.412       .  A
C4254      H4259   1.082       .  S
C4255      C4256   1.422       .  A
C4256      C4257   1.518       .  S
C4257      F4261   1.385       .  S
C4257      F4262   1.384       .  S
C4260      F4264   1.383       .  S
C4260      F4265   1.383       .  S
C4260      F4266   1.384       .  S
C4267      C4268   1.409       .  A
C4267      C4272   1.412       .  A
C4267      H4274   1.084       .  S
C4268      C4269   1.427       .  A
C4269      C4270   1.406       .  A
C4269      C4276   1.523       .  S
C4270      C4271   1.399       .  A
C4270      H4275   1.085       .  S
C4271      C4272   1.415       .  A
C4273      F4277   1.385       .  S
C4273      F4278   1.383       .  S
C4273      F4279   1.381       .  S
C4276      F4280   1.384       .  S
C4276      F4281   1.383       .  S
C4276      F4282   1.385       .  S
C4283      C4284   1.406       .  A
C4283      C4288   1.406       .  A
C4283      H4290   1.083       .  S
C4284      C4285   1.424       .  A
C4285      C4286   1.410       .  A
C4285      C4292   1.520       .  S
C4286      C4287   1.403       .  A
C4287      C4288   1.418       .  A
C4288      C4289   1.521       .  S
C4289      F4293   1.384       .  S
C4289      F4294   1.382       .  S
C4289      F4295   1.384       .  S
C4292      F4296   1.382       .  S
C4299      C4300   1.402       .  A
C4299      C4304   1.398       .  A
C4299      H4306   1.085       .  S
C4300      C4301   1.415       .  A
C4301      C4302   1.401       .  A
C4301      C4308   1.519       .  S
C4302      C4303   1.401       .  A
C4302      H4307   1.084       .  S
C4303      C4304   1.413       .  A
C4304      C4305   1.516       .  S
C4305      F4309   1.385       .  S
C4305      F4310   1.383       .  S
C4305      F4311   1.384       .  S
C4308      F4312   1.383       .  S
C4308      F4313   1.382       .  S
C4308      F4314   1.385       .  S
C4315      C4316   1.407       .  A
C4315      C4320   1.410       .  A
C4315      H4322   1.083       .  S
C4316      C4317   1.425       .  A
C4317      C4318   1.414       .  A
C4317      C4324   1.518       .  S
C4318      C4319   1.403       .  A
C4318      H4323   1.084       .  S
C4319      C4320   1.422       .  A
C4320      C4321   1.521       .  S
C4321      F4325   1.385       .  S
C4321      F4326   1.384       .  S
C4321      F4327   1.382       .  S
C4324      F4328   1.384       .  S
C4324      F4329   1.383       .  S
C4324      F4330   1.385       .  S
C4331      C4332   1.405       .  A
C4331      C4336   1.400       .  A
C4331      H4338   1.085       .  S
C4332      C4333   1.433       .  A
C4333      C4334   1.412       .  A
C4333      C4340   1.521       .  S
C4334      C4335   1.399       .  A
C4334      H4339   1.084       .  S
C4335      C4336   1.414       .  A
C4336      C4337   1.509       .  S
C4337      F4341   1.382       .  S
C4337      F4342   1.380       .  S
C4337      F4343   1.384       .  S
C4340      F4344   1.378       .  S
C4340      F4345   1.384       .  S
C4340      F4346   1.385       .  S
C4347      C4348   1.404       .  A
C4347      C4352   1.402       .  A
C4347      H4354   1.083       .  S
C4348      C4349   1.417       .  A
C4349      C4350   1.409       .  A
C4349      C4356   1.518       .  S
C4350      C4351   1.407       .  A
C4350      H4355   1.083       .  S
C4351      C4352   1.421       .  A
C4352      C4353   1.523       .  S
C4353      F4357   1.384       .  S
C4353      F4358   1.383       .  S
C4353      F4359   1.385       .  S
C4356      F4360   1.385       .  S
C4356      F4361   1.383       .  S
C4356      F4362   1.383       .  S
C4363      C4364   1.407       .  A
C4363      C4368   1.413       .  A
C4363      H4370   1.083       .  S
C4364      C4365   1.425       .  A
C4365      C4366   1.409       .  A
C4365      C4372   1.522       .  S
C4366      C4367   1.404       .  A
C4366      H4371   1.083       .  S
C4367      C4368   1.417       .  A
C4368      C4369   1.513       .  S
C4369      F4373   1.385       .  S
C4369      F4374   1.381       .  S
C4369      F4375   1.384       .  S
C4372      F4376   1.383       .  S
C4372      F4377   1.383       .  S
C4372      F4378   1.385       .  S
C4379      C4380   1.404       .  A
C4379      C4384   1.398       .  A
C4379      H4386   1.085       .  S
C4380      C4381   1.421       .  A
C4381      C4382   1.418       .  A
C4381      C4388   1.518       .  S
C4382      C4383   1.408       .  A
C4382      H4387   1.083       .  S
C4383      C4384   1.418       .  A
C4384      C4385   1.518       .  S
C4385      F4389   1.385       .  S
C4385      F4390   1.382       .  S
C4385      F4391   1.384       .  S
C4388      F4392   1.377       .  S
C4388      F4393   1.383       .  S
C4388      F4394   1.384       .  S
C4395      C4396   1.404       .  A
C4395      C4400   1.407       .  A
C4395      H4402   1.083       .  S
C4396      C4397   1.419       .  A
C4397      C4398   1.410       .  A
C4397      C4404   1.511       .  S
C4398      C4399   1.401       .  A
C4398      H4403   1.083       .  S
C4399      C4400   1.416       .  A
C4400      C4401   1.516       .  S
C4401      F4405   1.385       .  S
C4401      F4406   1.382       .  S
C4401      F4407   1.379       .  S
C4404      F4408   1.383       .  S
C4404      F4409   1.382       .  S
C4404      F4410   1.385       .  S
Fe4411     O4427   2.034       .  S
Fe4411     O4417   2.047       .  S
Fe4411     O4424   2.048       .  S
Fe4411     O4416   2.036       .  S
Fe4411     O4422   1.960       .  S
Fe4412     O4415   2.074       .  S
Fe4412     O4419   2.087       .  S
Fe4412     O4423   2.101       .  S
Fe4412     O4428   2.062       .  S
Fe4412     O4422   1.986       .  S
Fe4413     O4431   2.073       .  S
Fe4413     O4418   2.083       .  S
Fe4413     O4425   2.100       .  S
Fe4413     O4414   2.102       .  S
Fe4413     O4422   1.983       .  S
O4414      C4421   1.275       .  A
O4415      C4429   1.273       .  A
O4416      C4421   1.264       .  A
O4417      C4420   1.267       .  A
O4418      C4430   1.278       .  A
O4419      C4432   1.270       .  A
C4420      O4425   1.272       .  A
C4420      C5010   1.495       .  S
C4421      C5026   1.485       .  S
O4423      C4426   1.273       .  A
O4424      C4426   1.266       .  A
C4426      C4997   1.499       .  S
O4427      C4432   1.265       .  A
O4428      C4430   1.267       .  A
C4429      O4431   1.270       .  A
C4429      C4946   1.495       .  S
C4430      C4962   1.506       .  S
C4432      C4978   1.488       .  S
Fe4433     O4449   2.050       .  S
Fe4433     O4439   2.041       .  S
Fe4433     O4446   2.055       .  S
Fe4433     O4438   2.047       .  S
Fe4433     O4444   1.970       .  S
Fe4434     O4437   2.057       .  S
Fe4434     O4441   2.103       .  S
Fe4434     O4445   2.076       .  S
Fe4434     O4450   2.089       .  S
Fe4435     O4453   2.089       .  S
Fe4435     O4440   2.049       .  S
Fe4435     O4447   2.069       .  S
Fe4435     O4436   2.103       .  S
Fe4435     O4444   1.986       .  S
O4436      C4443   1.275       .  A
O4437      C4451   1.267       .  A
O4438      C4443   1.266       .  A
O4439      C4442   1.265       .  A
C4442      O4447   1.266       .  A
C4442      C4930   1.470       .  S
C4443      C5013   1.493       .  S
O4446      C4448   1.264       .  A
C4448      C4917   1.489       .  S
O4449      C4454   1.264       .  A
O4450      C4452   1.271       .  A
C4451      C4866   1.496       .  S
C4452      C4885   1.503       .  S
C4454      C4901   1.486       .  S
Fe4455     O4471   2.031       .  S
Fe4455     O4461   2.062       .  S
Fe4455     O4468   2.060       .  S
Fe4455     O4460   2.039       .  S
Fe4455     O4466   1.963       .  S
Fe4456     O4459   2.061   1_455  S
Fe4456     O4472   2.057   1_455  S
Fe4457     O4475   2.060       .  S
Fe4457     O4462   2.071       .  S
Fe4457     O4469   2.076       .  S
Fe4457     O4458   2.073       .  S
Fe4457     O4466   1.977       .  S
O4458      C4465   1.267       .  A
O4459      C4473   1.268   1_655  A
O4460      C4465   1.264       .  A
O4461      C4464   1.269       .  A
O4463      C4476   1.269       .  A
C4464      O4469   1.270       .  A
C4464      C5029   1.475       .  S
C4465      C4933   1.469       .  S
O4467      C4470   1.268       .  A
O4468      C4470   1.267       .  A
C4470      C4834   1.475       .  S
O4471      C4476   1.260       .  A
O4472      C4474   1.266   1_655  A
C4473      C4818   1.476   1_455  S
C4474      C4805   1.491   1_455  S
C4476      C4850   1.478       .  S
Fe4477     O4493   2.049       .  S
Fe4477     O4483   2.044       .  S
Fe4477     O4490   2.044       .  S
Fe4477     O4482   2.055       .  S
Fe4477     O4488   1.949       .  S
Fe4478     O4485   2.081       .  S
Fe4478     O4489   2.104       .  S
Fe4478     O4488   1.955       .  S
Fe4479     O4497   2.068       .  S
Fe4479     O4484   2.076       .  S
Fe4479     O4491   2.096       .  S
Fe4479     O4480   2.079       .  S
O4480      C4487   1.270       .  A
O4481      C4495   1.276       .  A
O4484      C4496   1.271       .  A
O4485      C4498   1.269       .  A
C4486      O4491   1.271       .  A
C4486      C4786   1.486       .  S
C4487      C4770   1.475       .  S
O4489      C4492   1.277       .  A
O4490      C4492   1.265       .  A
C4492      C4965   1.478       .  S
O4493      C4498   1.266       .  A
O4494      C4496   1.269       .  A
C4495      O4497   1.272       .  A
C4495      C4754   1.488       .  S
C4496      C4738   1.495       .  S
C4498      C4869   1.486       .  S
Fe4499     O4515   2.037       .  S
Fe4499     O4505   2.050       .  S
Fe4499     O4512   2.053       .  S
Fe4499     O4504   2.046       .  S
Fe4499     O4510   1.967       .  S
Fe4500     O4507   2.080       .  S
Fe4500     O4511   2.072       .  S
Fe4500     O4510   1.980       .  S
Fe4501     O4519   2.082       .  S
Fe4501     O4506   2.053       .  S
Fe4501     O4513   2.066       .  S
Fe4501     O4502   2.083       .  S
O4502      C4509   1.271       .  A
O4503      C4517   1.264       .  A
O4506      C4518   1.265       .  A
O4507      C4520   1.271       .  A
C4508      O4513   1.267       .  A
C4508      C4722   1.468       .  S
C4509      C4789   1.478       .  S
O4511      C4514   1.268       .  A
O4512      C4514   1.265       .  A
C4514      C4882   1.478       .  S
O4515      C4520   1.263       .  A
O4516      C4518   1.274       .  A
C4517      O4519   1.272       .  A
C4517      C4690   1.507       .  S
C4518      C4706   1.494       .  S
C4520      C4821   1.475       .  S
Fe4521     O4537   2.045       .  S
Fe4521     O4527   2.055       .  S
Fe4521     O4534   2.052       .  S
Fe4521     O4526   2.041       .  S
Fe4521     O4532   1.967       .  S
Fe4522     O4529   2.095       .  S
Fe4522     O4533   2.058       .  S
Fe4522     O4532   1.980       .  S
Fe4523     O4541   2.064       .  S
Fe4523     O4528   2.053       .  S
Fe4523     O4535   2.066       .  S
Fe4523     O4524   2.075       .  S
O4524      C4531   1.266       .  A
O4525      C4539   1.264       .  A
O4528      C4540   1.267       .  A
O4529      C4542   1.274       .  A
C4530      O4535   1.269       .  A
C4530      C4773   1.473       .  S
C4531      C4725   1.475       .  S
O4533      C4536   1.264       .  A
O4534      C4536   1.266       .  A
C4536      C4802   1.475       .  S
O4537      C4542   1.264       .  A
O4538      C4540   1.275       .  A
C4539      O4541   1.268       .  A
C4539      C4658   1.476       .  S
C4540      C4677   1.494       .  S
C4542      C4949   1.486       .  S
Fe4543     O4559   2.038       .  S
Fe4543     O4549   2.052       .  S
Fe4543     O4556   2.049       .  S
Fe4543     O4548   2.041       .  S
Fe4543     O4554   1.970       .  S
Fe4544     O4547   2.058       .  S
Fe4544     O4551   2.077       .  S
Fe4544     O4555   2.074       .  S
Fe4544     O4560   2.072       .  S
Fe4544     O4554   1.978       .  S
Fe4545     O4563   2.069       .  S
Fe4545     O4550   2.073       .  S
Fe4545     O4557   2.088       .  S
Fe4545     O4546   2.073       .  S
Fe4545     O4554   1.988       .  S
O4546      C4553   1.269       .  A
O4547      C4561   1.267       .  A
O4548      C4553   1.266       .  A
O4549      C4552   1.265       .  A
O4550      C4562   1.270       .  A
O4551      C4564   1.270       .  A
C4552      O4557   1.270       .  A
C4552      C4642   1.482       .  S
O4555      C4558   1.268       .  A
O4556      C4558   1.262       .  A
C4558      C4709   1.478       .  S
O4559      C4564   1.266       .  A
O4560      C4562   1.271       .  A
C4561      O4563   1.270       .  A
C4561      C4981   1.483       .  S
C4562      C4914   1.493       .  S
C4564      C4661   1.479       .  S
Fe4565     O4581   2.037       .  S
Fe4565     O4571   2.035       .  S
Fe4565     O4578   2.062       .  S
Fe4565     O4570   2.049       .  S
Fe4565     O4576   1.933       .  S
Fe4566     O4569   2.064       .  S
Fe4566     O4573   2.120       .  S
Fe4566     O4577   2.088       .  S
Fe4566     O4582   2.098       .  S
Fe4566     O4576   1.940       .  S
Fe4567     O4585   2.103       .  S
Fe4567     O4572   2.039       .  S
Fe4567     O4579   2.057       .  S
Fe4567     O4568   2.110       .  S
Fe4567     O4576   1.963       .  S
O4568      C4575   1.275       .  A
O4569      C4583   1.267       .  A
O4570      C4575   1.270       .  A
O4571      C4574   1.267       .  A
O4572      C4584   1.264       .  A
O4573      C4586   1.281       .  A
C4574      O4579   1.265       .  A
O4577      C4580   1.271       .  A
O4578      C4580   1.266       .  A
C4580      C4674   1.485       .  S
O4581      C4586   1.265       .  A
O4582      C4584   1.281       .  A
C4583      O4585   1.276       .  A
C4583      C4898   1.508       .  S
C4584      C4837   1.494       .  S
C4586      C4757   1.496       .  S
Fe4587     O4603   2.067       .  S
Fe4587     O4593   2.035       .  S
Fe4587     O4600   2.042       .  S
Fe4587     O4592   2.051       .  S
Fe4587     O4598   1.952       .  S
Fe4588     O4591   2.064       .  S
Fe4588     O4595   2.069       .  S
Fe4588     O4599   2.091       .  S
Fe4588     O4604   2.062       .  S
Fe4588     O4598   1.951       .  S
Fe4589     O4607   2.038       .  S
Fe4589     O4594   2.091       .  S
Fe4589     O4601   2.098       .  S
Fe4589     O4590   2.060       .  S
Fe4589     O4598   1.968       .  S
O4590      C4597   1.265       .  A
O4591      C4605   1.272       .  A
O4592      C4597   1.265       .  A
O4593      C4596   1.269       .  A
O4594      C4606   1.274       .  A
O4595      C4608   1.264       .  A
C4596      O4601   1.274       .  A
C4597      C4613   1.465       .  S
O4599      C4602   1.277       .  A
O4600      C4602   1.266       .  A
C4602      C4741   1.477       .  S
O4603      C4608   1.264       .  A
O4604      C4606   1.268       .  A
C4605      O4607   1.263       .  A
C4605      C4853   1.477       .  S
C4606      C4994   1.495       .  S
C4608      C4693   1.483       .  S
C4609      C4610   1.396       .  A
C4609      C4614   1.386       .  A
C4610      C4611   1.411       .  A
C4611      C4612   1.411       .  A
C4611      C4618   1.515       .  S
C4612      C4613   1.408       .  A
C4612      H4617   1.084       .  S
C4613      C4614   1.417       .  A
C4614      C4615   1.518       .  S
C4615      F4619   1.384       .  S
C4615      F4620   1.373       .  S
C4615      F4621   1.384       .  S
C4618      F4622   1.383       .  S
C4618      F4623   1.384       .  S
C4618      F4624   1.384       .  S
C4625      C4626   1.402       .  A
C4625      C4630   1.406       .  A
C4625      H4632   1.084       .  S
C4626      C4627   1.417       .  A
C4627      C4628   1.399       .  A
C4627      C4634   1.518       .  S
C4628      C4629   1.406       .  A
C4628      H4633   1.085       .  S
C4629      C4630   1.418       .  A
C4631      F4635   1.385       .  S
C4631      F4636   1.380       .  S
C4631      F4637   1.383       .  S
C4634      F4638   1.383       .  S
C4634      F4639   1.383       .  S
C4634      F4640   1.384       .  S
C4641      C4642   1.403       .  A
C4641      C4646   1.417       .  A
C4641      H4648   1.083       .  S
C4642      C4643   1.416       .  A
C4643      C4644   1.400       .  A
C4643      C4650   1.518       .  S
C4644      C4645   1.406       .  A
C4644      H4649   1.085       .  S
C4645      C4646   1.426       .  A
C4647      F4652   1.383       .  S
C4647      F4653   1.379       .  S
C4650      F4654   1.381       .  S
C4650      F4655   1.383       .  S
C4650      F4656   1.384       .  S
C4657      C4658   1.404       .  A
C4657      C4662   1.407       .  A
C4657      H4664   1.083       .  S
C4658      C4659   1.418       .  A
C4659      C4660   1.401       .  A
C4659      C4666   1.523       .  S
C4660      C4661   1.404       .  A
C4660      H4665   1.083       .  S
C4661      C4662   1.419       .  A
C4662      C4663   1.520       .  S
C4663      F4667   1.385       .  S
C4663      F4668   1.382       .  S
C4663      F4669   1.382       .  S
C4666      F4670   1.384       .  S
C4666      F4672   1.385       .  S
C4673      C4674   1.400       .  A
C4673      H4680   1.083       .  S
C4674      C4675   1.416       .  A
C4675      C4682   1.513       .  S
C4676      C4677   1.406       .  A
C4676      H4681   1.083       .  S
C4677      C4678   1.427       .  A
C4678      C4679   1.519       .  S
C4679      F4683   1.385       .  S
C4679      F4684   1.382       .  S
C4679      F4685   1.384       .  S
C4682      F4686   1.382       .  S
C4682      F4687   1.383       .  S
C4682      F4688   1.384       .  S
C4689      C4690   1.412       .  A
C4689      C4694   1.412       .  A
C4689      H4696   1.082       .  S
C4690      C4691   1.432       .  A
C4691      C4698   1.524       .  S
C4692      C4693   1.399       .  A
C4692      H4697   1.083       .  S
C4694      C4695   1.519   1_655  S
C4695      F4699   1.385   1_455  S
C4698      F4702   1.384       .  S
C4705      C4706   1.408       .  A
C4705      H4712   1.083       .  S
C4706      C4707   1.429       .  A
C4707      C4714   1.521       .  S
C4708      C4709   1.397       .  A
C4708      H4713   1.083       .  S
C4709      C4710   1.413       .  A
C4710      C4711   1.519       .  S
C4711      F4715   1.385       .  S
C4711      F4716   1.382       .  S
C4711      F4717   1.384       .  S
C4714      F4718   1.383       .  S
C4714      F4719   1.384       .  S
C4714      F4720   1.385       .  S
C4721      C4722   1.403       .  A
C4721      C4726   1.408       .  A
C4721      H4728   1.085       .  S
C4722      C4723   1.414       .  A
C4723      C4724   1.401       .  A
C4723      C4730   1.518   1_556  S
C4724      C4725   1.403       .  A
C4724      H4729   1.086   1_556  S
C4725      C4726   1.417       .  A
C4726      C4727   1.518       .  S
C4727      F4731   1.385       .  S
C4727      F4732   1.383       .  S
C4730      F4734   1.383       .  S
C4730      F4735   1.383       .  S
C4730      F4736   1.384   1_554  S
C4737      C4738   1.406       .  A
C4737      C4742   1.406       .  A
C4737      H4744   1.083       .  S
C4738      C4739   1.422       .  A
C4739      C4740   1.406       .  A
C4739      C4746   1.507       .  S
C4740      C4741   1.397       .  A
C4740      H4745   1.083       .  S
C4741      C4742   1.418       .  A
C4742      C4743   1.521       .  S
C4743      F4747   1.385       .  S
C4743      F4748   1.384       .  S
C4743      F4749   1.382       .  S
C4746      F4750   1.380       .  S
C4746      F4751   1.381   1_556  S
C4746      F4752   1.385       .  S
C4753      C4754   1.402       .  A
C4753      C4758   1.401       .  A
C4753      H4760   1.083       .  S
C4754      C4755   1.420       .  A
C4755      C4762   1.518       .  S
C4756      C4757   1.406       .  A
C4756      H4761   1.083       .  S
C4759      F4764   1.379       .  S
C4762      F4766   1.382       .  S
C4762      F4767   1.382       .  S
C4769      C4770   1.402       .  A
C4769      C4774   1.394       .  A
C4769      H4776   1.090   1_556  S
C4770      C4771   1.415       .  A
C4771      C4772   1.411       .  A
C4771      C4778   1.515       .  S
C4772      C4773   1.406       .  A
C4772      H4777   1.089       .  S
C4773      C4774   1.414       .  A
C4774      C4775   1.517   1_556  S
C4775      F4779   1.384       .  S
C4775      F4780   1.384       .  S
C4778      F4782   1.383       .  S
C4778      F4783   1.378       .  S
C4778      F4784   1.385       .  S
C4785      C4786   1.407       .  A
C4785      C4790   1.407       .  A
C4785      H4792   1.084   1_556  S
C4786      C4787   1.419       .  A
C4787      C4788   1.408       .  A
C4788      C4789   1.401       .  A
C4789      C4790   1.415       .  A
C4790      C4791   1.518   1_556  S
C4791      F4795   1.385       .  S
C4791      F4796   1.382       .  S
C4791      F4797   1.384   1_554  S
C4794      F4798   1.382       .  S
C4794      F4800   1.385       .  S
C4801      C4802   1.400       .  A
C4801      C4806   1.405       .  A
C4801      H4808   1.083       .  S
C4802      C4803   1.415       .  A
C4803      C4804   1.404       .  A
C4803      C4810   1.521       .  S
C4804      C4805   1.409       .  A
C4804      H4809   1.082   1_655  S
C4805      C4806   1.427       .  A
C4806      C4807   1.523       .  S
C4807      F4811   1.385       .  S
C4807      F4812   1.384       .  S
C4807      F4813   1.384       .  S
C4810      F4814   1.382       .  S
C4810      F4815   1.384       .  S
C4810      F4816   1.385   1_655  S
C4817      C4818   1.401       .  A
C4817      C4822   1.400       .  A
C4817      H4824   1.084       .  S
C4818      C4819   1.420       .  A
C4819      C4820   1.407       .  A
C4820      C4821   1.402       .  A
C4820      H4825   1.084       .  S
C4821      C4822   1.419       .  A
C4822      C4823   1.519       .  S
C4823      F4827   1.385       .  S
C4823      F4828   1.382       .  S
C4823      F4829   1.383       .  S
C4826      F4830   1.381       .  S
C4826      F4831   1.382       .  S
C4826      F4832   1.385       .  S
C4833      C4834   1.398       .  A
C4833      C4838   1.410       .  A
C4833      H4840   1.083       .  S
C4834      C4835   1.411       .  A
C4835      C4836   1.400       .  A
C4835      C4842   1.511       .  S
C4836      C4837   1.405       .  A
C4836      H4841   1.082       .  S
C4837      C4838   1.433       .  A
C4838      C4839   1.524       .  S
C4839      F4843   1.385       .  S
C4839      F4844   1.384       .  S
C4839      F4845   1.384       .  S
C4842      F4846   1.382       .  S
C4842      F4847   1.384       .  S
C4842      F4848   1.385       .  S
C4849      C4850   1.404       .  A
C4849      C4854   1.405       .  A
C4850      C4851   1.421       .  A
C4851      C4852   1.396       .  A
C4851      C4858   1.518       .  S
C4852      C4853   1.400       .  A
C4852      H4857   1.081       .  S
C4853      C4854   1.422       .  A
C4855      F4859   1.385   1_455  S
C4855      F4861   1.383       .  S
C4858      F4862   1.385       .  S
C4858      F4863   1.382       .  S
C4858      F4864   1.376       .  S
C4865      C4866   1.409       .  A
C4865      C4870   1.411       .  A
C4865      H4872   1.082       .  S
C4866      C4867   1.427       .  A
C4867      C4868   1.405       .  A
C4868      C4869   1.401       .  A
C4868      H4873   1.083       .  S
C4869      C4870   1.417       .  A
C4870      C4871   1.518       .  S
C4871      F4875   1.385       .  S
C4871      F4876   1.382       .  S
C4871      F4877   1.383       .  S
C4874      F4878   1.385       .  S
C4881      C4882   1.402       .  A
C4881      C4886   1.409       .  A
C4881      H4888   1.081       .  S
C4882      C4883   1.411       .  A
C4883      C4884   1.406       .  A
C4883      C4890   1.521       .  S
C4884      C4885   1.416       .  A
C4884      H4889   1.081       .  S
C4885      C4886   1.425       .  A
C4886      C4887   1.520       .  S
C4887      F4891   1.385       .  S
C4887      F4892   1.384       .  S
C4890      F4894   1.383       .  S
C4890      F4895   1.383       .  S
C4890      F4896   1.384       .  S
C4897      C4898   1.413       .  A
C4897      C4902   1.415       .  A
C4897      H4904   1.083       .  S
C4898      C4899   1.431       .  A
C4899      C4900   1.410       .  A
C4899      C4906   1.523       .  S
C4900      C4901   1.398       .  A
C4900      H4905   1.084       .  S
C4901      C4902   1.415       .  A
C4903      F4907   1.384       .  S
C4903      F4908   1.383       .  S
C4903      F4909   1.382       .  S
C4906      F4910   1.384       .  S
C4906      F4911   1.383       .  S
C4906      F4912   1.385       .  S
C4913      C4914   1.406       .  A
C4913      C4918   1.407       .  A
C4913      H4920   1.082       .  S
C4914      C4915   1.422       .  A
C4915      C4916   1.410       .  A
C4915      C4922   1.519       .  S
C4916      C4917   1.405       .  A
C4917      C4918   1.420       .  A
C4918      C4919   1.520       .  S
C4919      F4923   1.385       .  S
C4919      F4924   1.381       .  S
C4919      F4925   1.384       .  S
C4922      F4926   1.382       .  S
C4929      C4930   1.401       .  A
C4929      C4934   1.398       .  A
C4929      H4936   1.085       .  S
C4930      C4931   1.417       .  A
C4931      C4932   1.407       .  A
C4931      C4938   1.518       .  S
C4932      C4933   1.403       .  A
C4932      H4937   1.084       .  S
C4933      C4934   1.414       .  A
C4934      C4935   1.517       .  S
C4935      F4939   1.384       .  S
C4935      F4940   1.383       .  S
C4935      F4941   1.384       .  S
C4938      F4942   1.383       .  S
C4938      F4943   1.383       .  S
C4938      F4944   1.385       .  S
C4945      C4946   1.406       .  A
C4945      C4950   1.407       .  A
C4945      H4952   1.082       .  S
C4946      C4947   1.423       .  A
C4947      C4948   1.411       .  A
C4947      C4954   1.518       .  S
C4948      C4949   1.403       .  A
C4948      H4953   1.083       .  S
C4949      C4950   1.420       .  A
C4950      C4951   1.522       .  S
C4951      F4955   1.385       .  S
C4951      F4956   1.384       .  S
C4951      F4957   1.382       .  S
C4954      F4958   1.384       .  S
C4954      F4959   1.382       .  S
C4954      F4960   1.385       .  S
C4961      C4962   1.405       .  A
C4961      C4966   1.401       .  A
C4961      H4968   1.084       .  S
C4962      C4963   1.434       .  A
C4963      C4964   1.413       .  A
C4963      C4970   1.519       .  S
C4964      C4965   1.398       .  A
C4964      H4969   1.083       .  S
C4965      C4966   1.415       .  A
C4966      C4967   1.510       .  S
C4967      F4971   1.382       .  S
C4967      F4972   1.380       .  S
C4967      F4973   1.384       .  S
C4970      F4974   1.377       .  S
C4970      F4975   1.384       .  S
C4970      F4976   1.385       .  S
C4977      C4978   1.404       .  A
C4977      C4982   1.400       .  A
C4977      H4984   1.083       .  S
C4978      C4979   1.420       .  A
C4979      C4980   1.413       .  A
C4979      C4986   1.518       .  S
C4980      C4981   1.407       .  A
C4980      H4985   1.083       .  S
C4981      C4982   1.419       .  A
C4982      C4983   1.523       .  S
C4983      F4987   1.383       .  S
C4983      F4988   1.383       .  S
C4983      F4989   1.384       .  S
C4986      F4990   1.385       .  S
C4986      F4991   1.383       .  S
C4986      F4992   1.383       .  S
C4993      C4994   1.407       .  A
C4993      C4998   1.416       .  A
C4993      H5000   1.083       .  S
C4994      C4995   1.423       .  A
C4995      C4996   1.405       .  A
C4995      C5002   1.522       .  S
C4996      C4997   1.404       .  A
C4996      H5001   1.083       .  S
C4997      C4998   1.420       .  A
C4998      C4999   1.512       .  S
C4999      F5003   1.385       .  S
C4999      F5004   1.382       .  S
C4999      F5005   1.383       .  S
C5002      F5006   1.383       .  S
C5002      F5007   1.382       .  S
C5002      F5008   1.385       .  S
C5009      C5010   1.404       .  A
C5009      C5014   1.399       .  A
C5009      H5016   1.085       .  S
C5010      C5011   1.421       .  A
C5011      C5012   1.421       .  A
C5011      C5018   1.517       .  S
C5012      C5013   1.410       .  A
C5012      H5017   1.083       .  S
C5013      C5014   1.419       .  A
C5014      C5015   1.519       .  S
C5015      F5019   1.385       .  S
C5015      F5020   1.383       .  S
C5015      F5021   1.384       .  S
C5018      F5022   1.377       .  S
C5018      F5023   1.383       .  S
C5018      F5024   1.384       .  S
C5025      C5026   1.406       .  A
C5025      C5030   1.407       .  A
C5025      H5032   1.083       .  S
C5026      C5027   1.419       .  A
C5027      C5028   1.407       .  A
C5027      C5034   1.511       .  S
C5028      C5029   1.398       .  A
C5028      H5033   1.083       .  S
C5029      C5030   1.416       .  A
C5030      C5031   1.517       .  S
C5031      F5035   1.385       .  S
C5031      F5036   1.380       .  S
C5031      F5037   1.381       .  S
C5034      F5038   1.383       .  S
C5034      F5039   1.382       .  S
C5034      F5040   1.385       .  S
