geometry optimzed in LAMMPS
_audit_creation_date              2020-11-30 
_audit_creation_method            'lammps2cif' 
_symmetry_space_group_name_H-M    'P1' 
_symmetry_Int_Tables_number       1 
_symmetry_cell_setting            triclinic 
loop_ 
_symmetry_equiv_pos_as_xyz 
  x,y,z 
_cell_length_a                    77.90327164 
_cell_length_b                    41.47232803346802 
_cell_length_c                    25.5675952778876 
_cell_angle_alpha                 89.98003600058017 
_cell_angle_beta                  89.94119251990986 
_cell_angle_gamma                 89.99089660263998 
loop_ 
_atom_site_label 
_atom_site_type_symbol 
_atom_site_fract_x 
_atom_site_fract_y 
_atom_site_fract_z 
_atom_site_charge 
N1          N  0.10900575  0.24854793  0.77384425    -0.34700
N2          N  0.12974188  0.19925763  0.82312151    -0.55300
N3          N  0.15193584  0.24959432  0.86568571    -0.34700
N4          N  0.13195578  0.29875499  0.81188531    -0.55300
C5          C  0.10219435  0.22179479  0.75189124     0.28900
C6          C  0.10325845  0.27415611  0.74625531     0.28900
C7          C  0.16115039  0.22305095  0.87823392     0.28800
C8          C  0.16217341  0.27555949  0.87304025     0.28800
C9          C  0.11638913  0.18067848  0.80798509     0.37500
C10         C  0.13927276  0.18114356  0.85597473     0.37500
C11         C  0.11921732  0.31754271  0.79287152     0.37500
C12         C  0.14209477  0.31813154  0.84105676     0.37500
C13         C  0.09201074  0.23051283  0.70968888    -0.20000
C14         C  0.09266874  0.26357126  0.70616818    -0.20000
C15         C  0.17743881  0.23228495  0.89430626    -0.20000
C16         C  0.17807344  0.26541419  0.89110119    -0.20000
C17         C  0.11756452  0.15040758  0.83065398    -0.21100
C18         C  0.13208841  0.15066858  0.86102454    -0.21100
C19         C  0.12149353  0.34915707  0.80898678    -0.21100
C20         C  0.13600172  0.34954923  0.83945294    -0.21100
C21         C  0.10374044  0.19012918  0.77166275    -0.16400
C22         C  0.10599491  0.30681161  0.75938050    -0.16400
C23         C  0.15714341  0.30816379  0.86735876    -0.16400
C24         C  0.15488378  0.19102390  0.87896247    -0.16400
H25         H  0.08456836  0.21475995  0.68471658     0.16500
H26         H  0.08582584  0.27819886  0.67798602     0.16500
H27         H  0.18772048  0.21680928  0.90774913     0.16500
H28         H  0.18893694  0.28034981  0.90153312     0.16500
H29         H  0.10895751  0.13017547  0.82546455     0.14800
H30         H  0.13685659  0.13064020  0.88395735     0.14800
H31         H  0.11356897  0.36980291  0.79962323     0.14800
H32         H  0.14142778  0.37057483  0.85828187     0.14800
H33         H  0.11513343  0.24965336  0.80981158     0.28000
H34         H  0.13884089  0.25021017  0.85864008     0.28000
O35         O  0.99568466  0.95743976  0.56967580    -0.71100
O36         O  0.95985882  0.01474367  0.63413757    -0.72100
O37         O  0.95922150  0.95926519  0.56992285    -0.60700
O38         O  0.99638707  0.01288461  0.63427421    -0.69100
O39         O  0.99683153  0.04417476  0.56366903    -0.68600
O40         O  0.95966453  0.99026108  0.49895447    -0.59900
O41         O  0.96026398  0.04580520  0.56327574    -0.72400
O42         O  0.99619588  0.98865068  0.49898940    -0.71200
Cu43       Cu  0.97777807  0.98498866  0.60447620     1.04600
Cu44       Cu  0.97826127  0.01833421  0.52870587     1.04300
C45         C  0.00163105  0.96422292  0.52445008     0.95100
C46         C  0.95432376  0.03903253  0.60851206     0.94300
C47         C  0.95355923  0.96646999  0.52461067     0.86400
C48         C  0.00247093  0.03683532  0.60901053     0.92700
O49         O  0.96074171  0.54705007  0.59634985    -0.71100
O50         O  0.99815659  0.48811182  0.64739937    -0.72100
O51         O  0.99736259  0.54652022  0.59030187    -0.60700
O52         O  0.96160620  0.48849721  0.65352142    -0.69100
O53         O  0.96034346  0.46095100  0.57904002    -0.68600
O54         O  0.99593227  0.51879751  0.51601506    -0.59900
O55         O  0.99677404  0.46053854  0.57297405    -0.72400
O56         O  0.95944217  0.51929507  0.52209551    -0.71200
Cu57       Cu  0.97951252  0.51856229  0.62455153     1.04600
Cu58       Cu  0.97806624  0.48895843  0.54494110     1.04300
C59         C  0.95411981  0.54211312  0.55139529     0.95100
C60         C  0.00340213  0.46528842  0.61793252     0.94300
C61         C  0.00242306  0.54134453  0.54354446     0.86400
C62         C  0.95530003  0.46578053  0.62586280     0.92700
N63         N  0.15007854  0.74886046  0.27021700    -0.34700
N64         N  0.12793673  0.69988073  0.31514796    -0.55300
N65         N  0.10692491  0.75032970  0.36156336    -0.34700
N66         N  0.12977762  0.79925587  0.32080155    -0.55300
C67         C  0.15942271  0.72208334  0.25983510     0.28900
C68         C  0.16041349  0.77465246  0.26266417     0.28900
C69         C  0.10053810  0.72401191  0.38598812     0.28800
C70         C  0.10132289  0.77647088  0.38819521     0.28800
C71         C  0.13739788  0.68094901  0.28325972     0.37500
C72         C  0.11456012  0.68178714  0.33152293     0.37500
C73         C  0.14017755  0.81795984  0.29139077     0.37500
C74         C  0.11722176  0.81871842  0.33916026     0.37500
C75         C  0.17587623  0.73099706  0.24487723    -0.20000
C76         C  0.17649318  0.76417379  0.24658354    -0.20000
C77         C  0.09070863  0.73356097  0.42856035    -0.20000
C78         C  0.09118001  0.76668655  0.42987990    -0.20000
C79         C  0.13008212  0.65053001  0.27977042    -0.21100
C80         C  0.11558132  0.65108397  0.31033996    -0.21100
C81         C  0.13437689  0.84961560  0.29193854    -0.21100
C82         C  0.11981116  0.85006801  0.32217346    -0.21100
C83         C  0.15315997  0.69006122  0.26038110    -0.16400
C84         C  0.15538500  0.80734049  0.26671910    -0.16400
C85         C  0.10406336  0.80885375  0.37350451    -0.16400
C86         C  0.10224944  0.69188203  0.36846906    -0.16400
H87         H  0.18629706  0.71526543  0.23329859     0.16500
H88         H  0.18748607  0.77891266  0.23660733     0.16500
H89         H  0.08368091  0.71828167  0.45541031     0.16500
H90         H  0.08462837  0.78185682  0.45797330     0.16500
H91         H  0.13480098  0.62998118  0.25797705     0.14800
H92         H  0.10693007  0.63105621  0.31685584     0.14800
H93         H  0.14011180  0.87030682  0.27292479     0.14800
H94         H  0.11213812  0.87111576  0.33114441     0.14800
H95         H  0.13692386  0.74970840  0.27611790     0.28000
H96         H  0.11278725  0.75058661  0.32517232     0.28000
C97         C  0.72821681  0.49977690  0.07680159    -0.00600
C98         C  0.72869533  0.99827194  0.07304341    -0.00600
N99         N  0.64858627  0.24824777  0.26598919    -0.34700
N100        N  0.62665521  0.19871758  0.31155735    -0.55300
N101        N  0.60529962  0.24874023  0.35761991    -0.34700
N102        N  0.62806405  0.29822997  0.31663593    -0.55300
C103        C  0.65799794  0.22159665  0.25518906     0.28900
C104        C  0.65877737  0.27424376  0.25803182     0.28900
C105        C  0.59888574  0.22240983  0.38200198     0.28800
C106        C  0.59928577  0.27492933  0.38325692     0.28800
C107        C  0.63644438  0.17976595  0.28059392     0.37500
C108        C  0.61369495  0.18005501  0.32945367     0.37500
C109        C  0.63857382  0.31729154  0.28815138     0.37500
C110        C  0.61547213  0.31749510  0.33527408     0.37500
C111        C  0.67430671  0.23082787  0.23926376    -0.20000
C112        C  0.67479294  0.26400706  0.24102209    -0.20000
C113        C  0.58854326  0.23203251  0.42340016    -0.20000
C114        C  0.58876696  0.26516553  0.42410915    -0.20000
C115        C  0.62972706  0.14878838  0.27915579    -0.21100
C116        C  0.61531053  0.14898575  0.31010449    -0.21100
C117        C  0.63281457  0.34895326  0.28965566    -0.21100
C118        C  0.61815797  0.34905684  0.31942611    -0.21100
C119        C  0.65204530  0.18931629  0.25696061    -0.16400
C120        C  0.65376881  0.30693414  0.26307653    -0.16400
C121        C  0.60214570  0.30735078  0.36880737    -0.16400
C122        C  0.60115718  0.19009467  0.36585890    -0.16400
H123        H  0.68475824  0.21528837  0.22727930     0.16500
H124        H  0.68568815  0.27890147  0.23066809     0.16500
H125        H  0.58138538  0.21678722  0.44998216     0.16500
H126        H  0.58185832  0.28034429  0.45138793     0.16500
H127        H  0.63482039  0.12806812  0.25860631     0.14800
H128        H  0.60711839  0.12848611  0.31810259     0.14800
H129        H  0.63860806  0.36986174  0.27145559     0.14800
H130        H  0.61047646  0.37002768  0.32881254     0.14800
H131        H  0.63547382  0.24881785  0.27293743     0.28000
H132        H  0.61161083  0.24896525  0.32185545     0.28000
N133        N  0.60710079  0.74920992  0.78164596    -0.34700
N134        N  0.62893961  0.69962967  0.82759543    -0.55300
N135        N  0.65149934  0.74992615  0.86825730    -0.34700
N136        N  0.63068722  0.79926917  0.81696205    -0.55300
C137        C  0.59994668  0.72246574  0.76058992     0.28900
C138        C  0.60078218  0.77492595  0.75535514     0.28900
C139        C  0.66082751  0.72343571  0.88058388     0.28800
C140        C  0.66170198  0.77600860  0.87519101     0.28800
C141        C  0.61579264  0.68068280  0.81187053     0.37500
C142        C  0.63918727  0.68105898  0.85780392     0.37500
C143        C  0.61812830  0.81836118  0.79760532     0.37500
C144        C  0.64155340  0.81877498  0.84335655     0.37500
C145        C  0.58876584  0.73136719  0.72088898    -0.20000
C146        C  0.58928056  0.76441139  0.71762867    -0.20000
C147        C  0.67713081  0.73285818  0.89616976    -0.20000
C148        C  0.67767759  0.76597669  0.89279909    -0.20000
C149        C  0.61784277  0.64974889  0.83142806    -0.21100
C150        C  0.63264994  0.64997269  0.86050895    -0.21100
C151        C  0.62122286  0.85025021  0.81078117    -0.21100
C152        C  0.63605249  0.85052476  0.83972761    -0.21100
C153        C  0.60245645  0.69040638  0.77792480    -0.16400
C154        C  0.60434502  0.80768266  0.76619885    -0.16400
C155        C  0.65672738  0.80865622  0.86893605    -0.16400
C156        C  0.65479282  0.69119359  0.88081962    -0.16400
H157        H  0.58093117  0.71570920  0.69690173     0.16500
H158        H  0.58192812  0.77902963  0.69065223     0.16500
H159        H  0.68752922  0.71749580  0.90910206     0.16500
H160        H  0.68857620  0.78097699  0.90262565     0.16500
H161        H  0.60960381  0.62910550  0.82508575     0.14800
H162        H  0.63803980  0.62949413  0.88098310     0.14800
H163        H  0.61363603  0.87116333  0.80042317     0.14800
H164        H  0.64211362  0.87172999  0.85606519     0.14800
H165        H  0.61426286  0.75010704  0.81570154     0.28000
H166        H  0.63842584  0.75044212  0.86127297     0.28000
N167        N  0.34620300  0.75033084  0.76955716    -0.34700
N168        N  0.32590155  0.70021602  0.81908191    -0.55300
N169        N  0.30483880  0.74985343  0.86895782    -0.34700
N170        N  0.32413990  0.79994663  0.81440273    -0.55300
C171        C  0.35273478  0.72401630  0.74545265     0.28900
C172        C  0.35177427  0.77648376  0.74295662     0.28900
C173        C  0.29565293  0.72321828  0.88149034     0.28800
C174        C  0.29503527  0.77591502  0.88025462     0.28800
C175        C  0.33865188  0.68158535  0.79967975     0.37500
C176        C  0.31645906  0.68118012  0.85091707     0.37500
C177        C  0.33625575  0.81918908  0.79296871     0.37500
C178        C  0.31438447  0.81900105  0.84529862     0.37500
C179        C  0.36265469  0.73359032  0.70309847    -0.20000
C180        C  0.36205607  0.76668822  0.70153529    -0.20000
C181        C  0.27990096  0.73253341  0.90192813    -0.20000
C182        C  0.27952883  0.76573150  0.90125022    -0.20000
C183        C  0.33718349  0.65041751  0.81873107    -0.21100
C184        C  0.32310257  0.65012753  0.85106588    -0.21100
C185        C  0.33394272  0.85076455  0.80927031    -0.21100
C186        C  0.32007101  0.85067017  0.84235669    -0.21100
C187        C  0.35098922  0.69182039  0.76273024    -0.16400
C188        C  0.34899278  0.80892584  0.75741668    -0.16400
C189        C  0.29998222  0.80859643  0.87438975    -0.16400
C190        C  0.30137827  0.69084694  0.87746934    -0.16400
H191        H  0.36980138  0.71834419  0.67650011     0.16500
H192        H  0.36866402  0.78183565  0.67351671     0.16500
H193        H  0.26975840  0.71703511  0.91628718     0.16500
H194        H  0.26903968  0.78066565  0.91485694     0.16500
H195        H  0.34527364  0.62992661  0.80976202     0.14800
H196        H  0.31825462  0.62935190  0.87202758     0.14800
H197        H  0.34142488  0.87170414  0.79833167     0.14800
H198        H  0.31478931  0.87156516  0.86197869     0.14800
H199        H  0.34026598  0.75066163  0.80584866     0.28000
H200        H  0.31768497  0.75031899  0.85852322     0.28000
C201        C  0.22766295  0.99940878  0.07266590    -0.00600
N202        N  0.30669718  0.24821512  0.26825702    -0.34700
N203        N  0.32856033  0.19906004  0.31528896    -0.55300
N204        N  0.35046276  0.24946447  0.35708520    -0.34700
N205        N  0.32780709  0.29860790  0.31453974    -0.55300
C206        C  0.29714993  0.22158081  0.25893206     0.28900
C207        C  0.29658732  0.27420245  0.25938007     0.28900
C208        C  0.35694339  0.22352719  0.38231715     0.28800
C209        C  0.35674288  0.27601887  0.38098884     0.28800
C210        C  0.31839071  0.17965631  0.28639367     0.37500
C211        C  0.34141407  0.18038618  0.33371974     0.37500
C212        C  0.31728302  0.31728172  0.28550995     0.37500
C213        C  0.34070742  0.31785594  0.33095964     0.37500
C214        C  0.28085243  0.23076274  0.24291715    -0.20000
C215        C  0.28049188  0.26393665  0.24326323    -0.20000
C216        C  0.36759143  0.23373492  0.42252427    -0.20000
C217        C  0.36746517  0.26686517  0.42168140    -0.20000
C218        C  0.32467943  0.14834411  0.28716619    -0.21100
C219        C  0.33927763  0.14882157  0.31714126    -0.21100
C220        C  0.32338981  0.34870109  0.28419961    -0.21100
C221        C  0.33826327  0.34903625  0.31290103    -0.21100
C222        C  0.30295528  0.18930333  0.26206525    -0.16400
C223        C  0.30174248  0.30685916  0.26274725    -0.16400
C224        C  0.35402137  0.30815601  0.36479196    -0.16400
C225        C  0.35441809  0.19100387  0.36793786    -0.16400
H226        H  0.27031601  0.21518513  0.23186905     0.16500
H227        H  0.26963835  0.27879623  0.23243025     0.16500
H228        H  0.37487233  0.21886754  0.44932396     0.16500
H229        H  0.37462016  0.28243322  0.44771695     0.16500
H230        H  0.31921649  0.12726034  0.26860568     0.14800
H231        H  0.34726512  0.12821467  0.32625318     0.14800
H232        H  0.31767569  0.36929252  0.26487177     0.14800
H233        H  0.34622990  0.36993027  0.32023073     0.14800
H234        H  0.31980287  0.24862534  0.27475958     0.28000
H235        H  0.34397721  0.24910016  0.32171596     0.28000
C236        C  0.22827135  0.49861470  0.07276588    -0.00600
O237        O  0.45961263  0.95195563  0.56267686    -0.71100
O238        O  0.49547442  0.01001362  0.50128072    -0.72100
O239        O  0.49610888  0.95312225  0.56202215    -0.60700
O240        O  0.45901960  0.00881132  0.50207474    -0.69100
O241        O  0.45895887  0.03841150  0.57458885    -0.68600
O242        O  0.49592319  0.98237440  0.63488843    -0.59900
O243        O  0.49547246  0.03937259  0.57402510    -0.72400
O244        O  0.45935955  0.98147799  0.63525760    -0.71200
Cu245      Cu  0.47755836  0.97993037  0.52949207     1.04600
Cu246      Cu  0.47742190  0.01144865  0.60731129     1.04300
C247        C  0.45372294  0.95787737  0.60824527     0.95100
C248        C  0.50118638  0.03359265  0.52815851     0.94300
C249        C  0.50194757  0.95924026  0.60754906     0.86400
C250        C  0.45311635  0.03216661  0.52910341     0.92700
O251        O  0.49604925  0.54361736  0.56838105    -0.71100
O252        O  0.46006396  0.48815162  0.50094069    -0.72100
O253        O  0.45951506  0.54369622  0.56520368    -0.60700
O254        O  0.49653057  0.48805139  0.50390328    -0.69100
O255        O  0.49592430  0.45690097  0.57466786    -0.68600
O256        O  0.45880164  0.51253973  0.63594406    -0.59900
O257        O  0.45942946  0.45696996  0.57166676    -0.72400
O258        O  0.49534991  0.51251437  0.63916858    -0.71200
Cu259      Cu  0.47807064  0.51697816  0.53212391     1.04600
Cu260      Cu  0.47735809  0.48362953  0.60787205     1.04300
C261        C  0.50139554  0.53663769  0.61419567     0.95100
C262        C  0.45404237  0.46403154  0.52595058     0.94300
C263        C  0.45326311  0.53666391  0.60992904     0.86400
C264        C  0.50206250  0.46387810  0.52975876     0.92700
N265        N  0.84904247  0.25148197  0.78162212    -0.34700
N266        N  0.82811170  0.20120091  0.82813918    -0.55300
N267        N  0.80603909  0.25053209  0.87331259    -0.34700
N268        N  0.82639875  0.30087341  0.82327906    -0.55300
C269        C  0.85530014  0.22523757  0.75664700     0.28900
C270        C  0.85469360  0.27771540  0.75534869     0.28900
C271        C  0.79671340  0.22377229  0.88412138     0.28800
C272        C  0.79579181  0.27643809  0.88148667     0.28800
C273        C  0.84115349  0.18274265  0.81026261     0.37500
C274        C  0.81843139  0.18214429  0.85923501     0.37500
C275        C  0.83912852  0.32007343  0.80531628     0.37500
C276        C  0.81608329  0.31967641  0.85285427     0.37500
C277        C  0.86504798  0.23493994  0.71399618    -0.20000
C278        C  0.86469048  0.26806517  0.71323842    -0.20000
C279        C  0.78035510  0.23282465  0.89983828    -0.20000
C280        C  0.77977530  0.26601110  0.89818571    -0.20000
C281        C  0.83968866  0.15165468  0.82966181    -0.21100
C282        C  0.82527547  0.15125329  0.86066645    -0.21100
C283        C  0.83674453  0.35139657  0.82274090    -0.21100
C284        C  0.82210582  0.35117911  0.85275900    -0.21100
C285        C  0.85354840  0.19298520  0.77358014    -0.16400
C286        C  0.85222243  0.31003921  0.77080584    -0.16400
C287        C  0.80084817  0.30918280  0.87765345    -0.16400
C288        C  0.80285585  0.19159392  0.88314020    -0.16400
H289        H  0.87195001  0.21974795  0.68672520     0.16500
H290        H  0.87124649  0.28332519  0.68526815     0.16500
H291        H  0.76996070  0.21716581  0.91186837     0.16500
H292        H  0.76885568  0.28079220  0.90873466     0.16500
H293        H  0.84794437  0.13126175  0.82153666     0.14800
H294        H  0.82026110  0.13045299  0.88119344     0.14800
H295        H  0.84459778  0.37227629  0.81418006     0.14800
H296        H  0.81650059  0.37188891  0.87206446     0.14800
H297        H  0.84326918  0.25165735  0.81825363     0.28000
H298        H  0.81917365  0.25123676  0.86672688     0.28000
N299        N  0.80622611  0.74752677  0.27763154    -0.34700
N300        N  0.82635652  0.69896530  0.33346265    -0.55300
N301        N  0.84808184  0.74972550  0.37432111    -0.34700
N302        N  0.82713133  0.79840192  0.32262338    -0.55300
C303        C  0.79666742  0.72094809  0.26810874     0.28900
C304        C  0.79672520  0.77356907  0.26401584     0.28900
C305        C  0.85351449  0.72453195  0.40356115     0.28800
C306        C  0.85416021  0.77686272  0.39693067     0.28800
C307        C  0.81675728  0.67916081  0.30347406     0.37500
C308        C  0.83863593  0.68044136  0.35565203     0.37500
C309        C  0.81754421  0.81648029  0.28981030     0.37500
C310        C  0.84010492  0.81741455  0.33917787     0.37500
C311        C  0.78096096  0.73017275  0.24734247    -0.20000
C312        C  0.78098042  0.76334332  0.24489988    -0.20000
C313        C  0.86324805  0.73579954  0.44512770    -0.20000
C314        C  0.86366223  0.76883686  0.44093103    -0.20000
C315        C  0.82278305  0.64775204  0.30747353    -0.21100
C316        C  0.83665241  0.64858249  0.34052142    -0.21100
C317        C  0.82432744  0.84732749  0.28612839    -0.21100
C318        C  0.83867219  0.84787288  0.31724976    -0.21100
C319        C  0.80208243  0.68861138  0.27484465    -0.16400
C320        C  0.80226028  0.80609660  0.26539921    -0.16400
C321        C  0.85244816  0.80837222  0.37671277    -0.16400
C322        C  0.85102924  0.69164900  0.39147672    -0.16400
H323        H  0.77060110  0.71461270  0.23478415     0.16500
H324        H  0.77066160  0.77819554  0.22997273     0.16500
H325        H  0.86960015  0.72166077  0.47498195     0.16500
H326        H  0.87039076  0.78507291  0.46694536     0.16500
H327        H  0.81764868  0.62639742  0.28885788     0.14800
H328        H  0.84429540  0.62805276  0.35239868     0.14800
H329        H  0.81941670  0.86739721  0.26357979     0.14800
H330        H  0.84692544  0.86848474  0.32368281     0.14800
H331        H  0.81912062  0.74759576  0.28732681     0.28000
H332        H  0.84258058  0.74830424  0.33747799     0.28000
C333        C  0.27194516  0.37947687  0.20391170     0.18900
C334        C  0.27475842  0.41087726  0.22233638    -0.10200
C335        C  0.26626343  0.43698021  0.19918648    -0.11100
C336        C  0.25494337  0.43173821  0.15750151     0.20500
C337        C  0.25188858  0.40026829  0.13982838    -0.13100
C338        C  0.26037164  0.37420889  0.16294111    -0.11400
C339        C  0.24666428  0.45839173  0.13171265     0.01400
C340        C  0.23896916  0.47836009  0.10663523    -0.31400
C341        C  0.28152647  0.35291723  0.22532705     0.02800
C342        C  0.29031306  0.33139083  0.24229865    -0.33100
H343        H  0.28371355  0.41521019  0.25396033     0.13900
H344        H  0.26869471  0.46119009  0.21324249     0.13700
H345        H  0.24313010  0.39593685  0.10768512     0.13500
H346        H  0.25812086  0.35005636  0.14833367     0.12600
C347        C  0.41563778  0.40976326  0.46320808     0.18900
C348        C  0.41047985  0.41370274  0.41109942    -0.10200
C349        C  0.39725045  0.39468824  0.39074811    -0.11100
C350        C  0.38914027  0.37174776  0.42250901     0.20500
C351        C  0.39422308  0.36796754  0.47466269    -0.13100
C352        C  0.40743337  0.38696274  0.49499484    -0.11400
C353        C  0.37603458  0.35123572  0.40135189     0.01400
C354        C  0.36562589  0.33247737  0.38453420    -0.31400
C355        C  0.42939713  0.42890929  0.48411763     0.02800
C356        C  0.44081055  0.44481463  0.50265254    -0.33100
H357        H  0.41674262  0.43128342  0.38620910     0.13900
H358        H  0.39345133  0.39767070  0.35027987     0.13700
H359        H  0.38807621  0.35016922  0.49942849     0.13500
H360        H  0.41132142  0.38373998  0.53533445     0.12600
C361        C  0.38914152  0.12802330  0.42971941     0.18900
C362        C  0.40482775  0.14130199  0.44548827    -0.10200
C363        C  0.41767267  0.12142546  0.46570874    -0.11100
C364        C  0.41487430  0.08820577  0.47024602     0.20500
C365        C  0.39916137  0.07488456  0.45465663    -0.13100
C366        C  0.38629551  0.09479635  0.43437783    -0.11400
C367        C  0.42819384  0.06794184  0.49078080     0.01400
C368        C  0.43959003  0.05156448  0.50815355    -0.31400
C369        C  0.37613041  0.14862628  0.40826701     0.02800
C370        C  0.36588468  0.16721518  0.39005848    -0.33100
H371        H  0.40713665  0.16697829  0.44198413     0.13900
H372        H  0.42978285  0.13192375  0.47768041     0.13700
H373        H  0.39688993  0.04919511  0.45805337     0.13500
H374        H  0.37419895  0.08433062  0.42221927     0.12600
C375        C  0.27437087  0.11677093  0.19803544     0.18900
C376        C  0.27813500  0.08485055  0.21192337    -0.10200
C377        C  0.26913947  0.05939816  0.18881273    -0.11100
C378        C  0.25636378  0.06583238  0.15176605     0.20500
C379        C  0.25259591  0.09775535  0.13793139    -0.13100
C380        C  0.26158017  0.12318427  0.16103494    -0.11400
C381        C  0.24711269  0.03989906  0.12749022     0.01400
C382        C  0.23870724  0.02008915  0.10447286    -0.31400
C383        C  0.28385256  0.14286732  0.22101420     0.02800
C384        C  0.29224001  0.16432564  0.23979976    -0.33100
H385        H  0.28805193  0.07966595  0.24039570     0.13900
H386        H  0.27216173  0.03479385  0.19968063     0.13700
H387        H  0.24275067  0.10295678  0.10922049     0.13500
H388        H  0.25861427  0.14777682  0.14992941     0.12600
C389        C  0.25564073  0.56609674  0.98999079     0.18900
C390        C  0.26919477  0.55997079  0.95530346    -0.10200
C391        C  0.27798830  0.58563921  0.93179829    -0.11100
C392        C  0.27327066  0.61755988  0.94284142     0.20500
C393        C  0.25957548  0.62365943  0.97698658    -0.13100
C394        C  0.25079142  0.59801603  0.00047881    -0.11400
C395        C  0.28269529  0.64399308  0.92003426     0.01400
C396        C  0.29094803  0.66571354  0.90109009    -0.31400
C397        C  0.24690214  0.53989722  0.01590834     0.02800
C398        C  0.23900070  0.51974817  0.04016817    -0.33100
H399        H  0.27306440  0.53542678  0.94685456     0.13900
H400        H  0.28855496  0.58061780  0.90544292     0.13700
H401        H  0.25580059  0.64820840  0.98582167     0.13500
H402        H  0.24033227  0.60307523  0.02722173     0.12600
C403        C  0.25513444  0.93390008  0.98734081     0.18900
C404        C  0.27159661  0.93844671  0.96646780    -0.10200
C405        C  0.28032191  0.91249545  0.94361870    -0.11100
C406        C  0.27261636  0.88194834  0.94165202     0.20500
C407        C  0.25613067  0.87752292  0.96226578    -0.13100
C408        C  0.24742100  0.90342191  0.98504970    -0.11400
C409        C  0.28162860  0.85513934  0.91871114     0.01400
C410        C  0.28954601  0.83327005  0.89904376    -0.31400
C411        C  0.24630710  0.95985142  0.01323000     0.02800
C412        C  0.23818929  0.97920329  0.03829629    -0.33100
H413        H  0.27772035  0.96187252  0.96829566     0.13900
H414        H  0.29308059  0.91617594  0.92779528     0.13700
H415        H  0.25005996  0.85403481  0.96099606     0.13500
H416        H  0.23473803  0.89961316  0.00136805     0.12600
C417        C  0.38546466  0.86905421  0.69850710     0.18900
C418        C  0.39772888  0.85429357  0.66633599    -0.10200
C419        C  0.41190675  0.87183243  0.64865634    -0.11100
C420        C  0.41387464  0.90417262  0.66319791     0.20500
C421        C  0.40157804  0.91896461  0.69523397    -0.13100
C422        C  0.38739512  0.90141409  0.71293228    -0.11400
C423        C  0.42840120  0.92229788  0.64489335     0.01400
C424        C  0.44024901  0.93811615  0.62885691    -0.31400
C425        C  0.37131606  0.85048083  0.71817256     0.02800
C426        C  0.36044582  0.83280545  0.73544127    -0.33100
H427        H  0.39638308  0.82920402  0.65524342     0.13900
H428        H  0.42133171  0.86019572  0.62383324     0.13700
H429        H  0.40298382  0.94398846  0.70660627     0.13500
H430        H  0.37802471  0.91296571  0.73804763     0.12600
C431        C  0.41386197  0.59102253  0.66722931     0.18900
C432        C  0.40100372  0.60172844  0.63306484    -0.10200
C433        C  0.38749824  0.62073716  0.65187593    -0.11100
C434        C  0.38678600  0.62906056  0.70495129     0.20500
C435        C  0.39957962  0.61815631  0.73914149    -0.13100
C436        C  0.41307923  0.59917265  0.72034151    -0.11400
C437        C  0.37331113  0.64965918  0.72418361     0.01400
C438        C  0.36271852  0.66808306  0.74127964    -0.31400
C439        C  0.42791633  0.57194005  0.64773299     0.02800
C440        C  0.43962045  0.55596542  0.63094357    -0.33100
H441        H  0.40148360  0.59556751  0.59191106     0.13900
H442        H  0.37771686  0.62914555  0.62504144     0.13700
H443        H  0.39919336  0.62455738  0.78020746     0.13500
H444        H  0.42294744  0.59103687  0.74710314     0.12600
C445        C  0.54217601  0.90672845  0.66329315     0.18900
C446        C  0.54842208  0.91266992  0.71372280    -0.10200
C447        C  0.56204393  0.89440855  0.73345689    -0.11100
C448        C  0.56950211  0.87016073  0.70280875     0.20500
C449        C  0.56343172  0.86454934  0.65202649    -0.13100
C450        C  0.54980401  0.88283284  0.63227087    -0.11400
C451        C  0.58274975  0.84998203  0.72443388     0.01400
C452        C  0.59305178  0.83164056  0.74327476    -0.31400
C453        C  0.52778598  0.92482374  0.64384292     0.02800
C454        C  0.51578594  0.94022245  0.62776537    -0.33100
H455        H  0.54263089  0.93112869  0.73798225     0.13900
H456        H  0.56658701  0.89886078  0.77283213     0.13700
H457        H  0.56905611  0.84576071  0.62807033     0.13500
H458        H  0.54508824  0.87808494  0.59317089     0.12600
C459        C  0.53964490  0.59109705  0.67825455     0.18900
C460        C  0.55109377  0.57753054  0.71438049    -0.10200
C461        C  0.56445963  0.59612187  0.73511431    -0.11100
C462        C  0.56643532  0.62835336  0.71977579     0.20500
C463        C  0.55501693  0.64186142  0.68354254    -0.13100
C464        C  0.54166659  0.62329437  0.66283912    -0.11400
C465        C  0.57992860  0.64789860  0.74162226     0.01400
C466        C  0.59059420  0.66612614  0.75883930    -0.31400
C467        C  0.52592254  0.57199174  0.65665141     0.02800
C468        C  0.51457734  0.55600068  0.63772780    -0.33100
H469        H  0.54967806  0.55264105  0.72651998     0.13900
H470        H  0.57319235  0.58543235  0.76314643     0.13700
H471        H  0.55640286  0.66677021  0.67144752     0.13500
H472        H  0.53292393  0.63403657  0.63488329     0.12600
C473        C  0.56663842  0.37025764  0.42682381     0.18900
C474        C  0.56929085  0.40337776  0.43395100    -0.10200
C475        C  0.55614767  0.42258713  0.45452198    -0.11100
C476        C  0.54033416  0.40871137  0.46793480     0.20500
C477        C  0.53767131  0.37565219  0.46040243    -0.13100
C478        C  0.55079125  0.35647859  0.43988300    -0.11400
C479        C  0.52685358  0.42824633  0.48969305     0.01400
C480        C  0.51548894  0.44438891  0.50805459    -0.31400
C481        C  0.58009885  0.35011896  0.40656069     0.02800
C482        C  0.59060120  0.33147953  0.38974824    -0.33100
H483        H  0.58149559  0.41426561  0.42387290     0.13900
H484        H  0.55832369  0.44815359  0.46014288     0.13700
H485        H  0.52549155  0.36469727  0.47057695     0.13500
H486        H  0.54861487  0.33089297  0.43443206     0.12600
C487        C  0.53949987  0.08946991  0.46814420     0.18900
C488        C  0.55607279  0.07668003  0.46283873    -0.10200
C489        C  0.56937316  0.09585370  0.44308745    -0.11100
C490        C  0.56611809  0.12785216  0.42853535     0.20500
C491        C  0.54956485  0.14062112  0.43404101    -0.13100
C492        C  0.53628560  0.12147539  0.45372003    -0.11400
C493        C  0.57955437  0.14765987  0.40710666     0.01400
C494        C  0.58987575  0.16599683  0.38836309    -0.31400
C495        C  0.52582539  0.06993966  0.48884936     0.02800
C496        C  0.51443145  0.05361858  0.50665888    -0.33100
H497        H  0.55869822  0.05195488  0.47395205     0.13900
H498        H  0.58212636  0.08573896  0.43898489     0.13700
H499        H  0.54691588  0.16533819  0.42291122     0.13500
H500        H  0.52353335  0.13161682  0.45771207     0.12600
C501        C  0.70287574  0.93119482  0.98515992     0.18900
C502        C  0.70570461  0.89916399  0.00050461    -0.10200
C503        C  0.69714153  0.87394848  0.97518151    -0.11100
C504        C  0.68571042  0.88059071  0.93429356     0.20500
C505        C  0.68302269  0.91258967  0.91854774    -0.13100
C506        C  0.69159292  0.93782277  0.94388376    -0.11400
C507        C  0.67631272  0.85473238  0.90977777     0.01400
C508        C  0.66782484  0.83345266  0.89054063    -0.31400
C509        C  0.71129677  0.95709628  0.01267557     0.02800
C510        C  0.71872580  0.97717732  0.03833722    -0.33100
H511        H  0.71439258  0.89371988  0.03238102     0.13900
H512        H  0.69929075  0.84934040  0.98783086     0.13700
H513        H  0.67417264  0.91804264  0.88710231     0.13500
H514        H  0.68929136  0.96246186  0.93167419     0.12600
C515        C  0.68099779  0.11540279  0.19706740     0.18900
C516        C  0.69703761  0.12066043  0.17378268    -0.10200
C517        C  0.70618481  0.09483660  0.15222306    -0.11100
C518        C  0.69937540  0.06355669  0.15378854     0.20500
C519        C  0.68343358  0.05818383  0.17773903    -0.13100
C520        C  0.67427431  0.08405061  0.19934999    -0.11400
C521        C  0.70859497  0.03750632  0.12903080     0.01400
C522        C  0.71716447  0.01809225  0.10529671    -0.31400
C523        C  0.67131457  0.14219405  0.21771101     0.02800
C524        C  0.66284242  0.16414788  0.23500047    -0.33100
H525        H  0.70238399  0.14474622  0.17180100     0.13900
H526        H  0.71847940  0.09931919  0.13373913     0.13700
H527        H  0.67800988  0.03414796  0.17914918     0.13500
H528        H  0.66188783  0.07967443  0.21731004     0.12600
C529        C  0.75682280  0.93123794  0.15361387     0.18900
C530        C  0.75573751  0.92567230  0.20759395    -0.10200
C531        C  0.76437134  0.89944611  0.22996957    -0.11100
C532        C  0.77408515  0.87861814  0.19845425     0.20500
C533        C  0.77512262  0.88416930  0.14449415    -0.13100
C534        C  0.76650425  0.91036031  0.12215249    -0.11400
C535        C  0.78329546  0.85201441  0.22149324     0.01400
C536        C  0.79157171  0.83051392  0.24095331    -0.31400
C537        C  0.74758038  0.95755484  0.12986242     0.02800
C538        C  0.73939707  0.97760281  0.10635652    -0.33100
H539        H  0.74819964  0.94150328  0.23227987     0.13900
H540        H  0.76349738  0.89544033  0.27176212     0.13700
H541        H  0.78260866  0.86829411  0.11973088     0.13500
H542        H  0.76734269  0.91427563  0.08032467     0.12600
C543        C  0.77495493  0.11838395  0.94969782     0.18900
C544        C  0.77035505  0.11952352  0.00265623    -0.10200
C545        C  0.76150207  0.09374043  0.02548475    -0.11100
C546        C  0.75720891  0.06659436  0.99557169     0.20500
C547        C  0.76179678  0.06542777  0.94257170    -0.13100
C548        C  0.77066274  0.09124449  0.91971588    -0.11400
C549        C  0.74786513  0.04037613  0.01941254     0.01400
C550        C  0.73957386  0.02006661  0.04206699    -0.31400
C551        C  0.78424331  0.14484686  0.92638612     0.02800
C552        C  0.79239965  0.16654069  0.90692965    -0.33100
H553        H  0.77361586  0.14031665  0.02628294     0.13900
H554        H  0.75797761  0.09499087  0.06644262     0.13700
H555        H  0.75851043  0.04463995  0.91897197     0.13500
H556        H  0.77417476  0.09004292  0.87875068     0.12600
C557        C  0.68247194  0.38014430  0.20092565     0.18900
C558        C  0.68583556  0.40780405  0.23074802    -0.10200
C559        C  0.69459138  0.43389763  0.20840631    -0.14700
C560        C  0.69997087  0.43241520  0.15614208     0.20500
C561        C  0.69652282  0.40481810  0.12634639    -0.13100
C562        C  0.68778914  0.37877702  0.14864741    -0.11400
C563        C  0.70931047  0.45871337  0.13284823     0.01400
C564        C  0.71759482  0.47871794  0.10962984    -0.31400
C565        C  0.67326846  0.35342660  0.22344968     0.02800
C566        C  0.66491109  0.33162010  0.24154566    -0.33100
H567        H  0.68169538  0.40918224  0.27115278     0.13900
H568        H  0.69720048  0.45510052  0.23182259     0.13700
H569        H  0.70064349  0.40339813  0.08591779     0.13500
H570        H  0.68518435  0.35760022  0.12515507     0.12600
C571        C  0.69982804  0.56781218  0.99910149     0.18900
C572        C  0.68933125  0.56213991  0.95562448    -0.10200
C573        C  0.68073826  0.58780004  0.93155910    -0.11100
C574        C  0.68260156  0.61925391  0.95082523     0.20500
C575        C  0.69308741  0.62490963  0.99436707    -0.13100
C576        C  0.70167641  0.59925338  0.01843584    -0.11400
C577        C  0.67352064  0.64552185  0.92637030     0.01400
C578        C  0.66536266  0.66675361  0.90571373    -0.31400
C579        C  0.70891929  0.54163014  0.02362990     0.02800
C580        C  0.71722458  0.52134060  0.04608991    -0.33100
H581        H  0.68781701  0.53795275  0.94031700     0.13900
H582        H  0.67262623  0.58312308  0.89801400     0.13700
H583        H  0.69459828  0.64909035  0.00971085     0.13500
H584        H  0.70977881  0.60392498  0.05201963     0.12600
C585        C  0.77450428  0.61570455  0.20765951     0.18900
C586        C  0.77978808  0.58375213  0.21546462    -0.10200
C587        C  0.77091337  0.55844757  0.19142149    -0.11100
C588        C  0.75673447  0.56504080  0.15949767     0.20500
C589        C  0.75142555  0.59699949  0.15191657    -0.13100
C590        C  0.76028963  0.62227088  0.17593416    -0.11400
C591        C  0.74770620  0.53930559  0.13366890     0.01400
C592        C  0.73940336  0.51980737  0.10948131    -0.31400
C593        C  0.78377823  0.64175861  0.23162287     0.02800
C594        C  0.79182977  0.66336912  0.25133523    -0.33100
H595        H  0.79079064  0.57844139  0.23988843     0.13900
H596        H  0.77514264  0.53384401  0.19747962     0.13700
H597        H  0.74049267  0.60237153  0.12722758     0.13500
H598        H  0.75611894  0.64688968  0.16959304     0.12600
C599        C  0.75478538  0.43313390  0.99053144     0.18900
C600        C  0.76661122  0.43897924  0.95029116    -0.10200
C601        C  0.77521645  0.41318575  0.92651303    -0.11100
C602        C  0.77202589  0.38144558  0.94281055     0.20500
C603        C  0.76006807  0.37561542  0.98265921    -0.13100
C604        C  0.75146981  0.40137350  0.00639644    -0.11400
C605        C  0.78134716  0.35502567  0.91959420     0.01400
C606        C  0.78978273  0.33361938  0.90046643    -0.31400
C607        C  0.74625671  0.45944988  0.01667663     0.02800
C608        C  0.73853320  0.47929473  0.04203773    -0.33100
H609        H  0.76929165  0.46340817  0.93768642     0.13900
H610        H  0.78446361  0.41799442  0.89580427     0.13700
H611        H  0.75751000  0.35121986  0.99567970     0.13500
H612        H  0.74235481  0.39655500  0.03747830     0.12600
C613        C  0.20063231  0.93212721  0.15555775     0.18900
C614        C  0.20432996  0.90049305  0.14000549    -0.10200
C615        C  0.19586577  0.87456767  0.16347361    -0.11100
C616        C  0.18366379  0.88015797  0.20262440     0.20500
C617        C  0.17993602  0.91180009  0.21827377    -0.13100
C618        C  0.18842292  0.93778519  0.19476716    -0.11400
C619        C  0.17468422  0.85347430  0.22574913     0.01400
C620        C  0.16647572  0.83173294  0.24445698    -0.31400
C621        C  0.20935691  0.95847460  0.13052206     0.02800
C622        C  0.21733306  0.97836491  0.10619515    -0.33100
H623        H  0.21371698  0.89589369  0.10959690     0.13900
H624        H  0.19876833  0.85021339  0.15093976     0.13700
H625        H  0.17043797  0.91635125  0.24837213     0.13500
H626        H  0.18543880  0.96216843  0.20695677     0.12600
C627        C  0.19956178  0.56474579  0.15317202     0.18900
C628        C  0.18318926  0.55970309  0.17435171    -0.10200
C629        C  0.17411400  0.58551495  0.19627638    -0.11100
C630        C  0.18137274  0.61644784  0.19707290     0.20500
C631        C  0.19780286  0.62140390  0.17629061    -0.13100
C632        C  0.20686921  0.59561835  0.15438609    -0.11400
C633        C  0.17190312  0.64308142  0.21882576     0.01400
C634        C  0.16364057  0.66489173  0.23731251    -0.31400
C635        C  0.20870392  0.53874914  0.12837342     0.02800
C636        C  0.21707688  0.51908048  0.10474001    -0.33100
H637        H  0.17739303  0.53596587  0.17345556     0.13900
H638        H  0.16141300  0.58142025  0.21225866     0.13700
H639        H  0.20354013  0.64519974  0.17669573     0.13500
H640        H  0.21949783  0.59980583  0.13791948     0.12600
C641        C  0.06796932  0.62998571  0.43530525     0.18900
C642        C  0.05906169  0.64206818  0.47868195    -0.10200
C643        C  0.04596707  0.62392167  0.50166154    -0.11100
C644        C  0.04171099  0.59363193  0.48130361     0.20500
C645        C  0.05083999  0.58124291  0.43851143    -0.13100
C646        C  0.06395443  0.59942071  0.41549106    -0.11400
C647        C  0.02771472  0.57568093  0.50356930     0.01400
C648        C  0.01595745  0.56056864  0.52191066    -0.31400
C649        C  0.08074588  0.64963252  0.41030082     0.02800
C650        C  0.09082562  0.66798238  0.39055895    -0.33100
H651        H  0.06207608  0.66569749  0.49424193     0.13900
H652        H  0.03901336  0.63367791  0.53479117     0.13700
H653        H  0.04766503  0.55779232  0.42256166     0.13500
H654        H  0.07077320  0.58988597  0.38193285     0.12600
C655        C  0.91622671  0.40955948  0.67979487     0.18900
C656        C  0.91493522  0.37732142  0.66388783    -0.10200
C657        C  0.90117406  0.35837948  0.68100283    -0.11100
C658        C  0.88863859  0.37163489  0.71398176     0.20500
C659        C  0.88984603  0.40394581  0.72942886    -0.13100
C660        C  0.90360110  0.42288002  0.71231906    -0.11400
C661        C  0.87486846  0.35179061  0.73323176     0.01400
C662        C  0.86400689  0.33387356  0.75010385    -0.31400
C663        C  0.93043133  0.42903412  0.66260173     0.02800
C664        C  0.94205055  0.44567152  0.64708874    -0.33100
H665        H  0.92459159  0.36681857  0.63856037     0.13900
H666        H  0.90037659  0.33338586  0.66890388     0.13700
H667        H  0.88024348  0.41440104  0.75498818     0.13500
H668        H  0.90444350  0.44781782  0.72466015     0.12600
C669        C  0.88656530  0.63145208  0.45622387     0.18900
C670        C  0.90255380  0.63199420  0.43111990    -0.10200
C671        C  0.91629746  0.61433129  0.45140738    -0.11100
C672        C  0.91414323  0.59603240  0.49698115     0.20500
C673        C  0.89811943  0.59530410  0.52200310    -0.13100
C674        C  0.88434715  0.61301653  0.50167962    -0.11400
C675        C  0.92835531  0.57784743  0.51761030     0.01400
C676        C  0.94026400  0.56211784  0.53363796    -0.31400
C677        C  0.87271803  0.65060742  0.43571054     0.02800
C678        C  0.86220855  0.66837415  0.41653395    -0.33100
H679        H  0.90441877  0.64623051  0.39602646     0.13900
H680        H  0.92860353  0.61500791  0.43165507     0.13700
H681        H  0.89629795  0.58115244  0.55719907     0.13500
H682        H  0.87204898  0.61248394  0.52148050     0.12600
C683        C  0.06781699  0.87116346  0.42928771     0.18900
C684        C  0.07047910  0.89321047  0.46997727    -0.10200
C685        C  0.05683681  0.91205508  0.48830263    -0.11100
C686        C  0.04048089  0.90890660  0.46605300     0.20500
C687        C  0.03783318  0.88686736  0.42535501    -0.13100
C688        C  0.05146602  0.86803747  0.40704397    -0.11400
C689        C  0.02642691  0.92812097  0.48525858     0.01400
C690        C  0.01488568  0.94439141  0.50238099    -0.31400
C691        C  0.08167852  0.85121258  0.41085025     0.02800
C692        C  0.09245669  0.83293723  0.39445377    -0.33100
H693        H  0.08304705  0.89573471  0.48760727     0.13900
H694        H  0.05902149  0.92898416  0.51986604     0.13700
H695        H  0.02524409  0.88418021  0.40792393     0.13500
H696        H  0.04924890  0.85096329  0.37570348     0.12600
C697        C  0.88823029  0.87222973  0.42938838     0.18900
C698        C  0.88437825  0.90080586  0.45610197    -0.10200
C699        C  0.89765778  0.92047851  0.47436274    -0.11100
C700        C  0.91479466  0.91159728  0.46589507     0.20500
C701        C  0.91861925  0.88306371  0.43905802    -0.13100
C702        C  0.90535755  0.86341736  0.42082974    -0.11400
C703        C  0.92847229  0.93144642  0.48535991     0.01400
C704        C  0.93999571  0.94761185  0.50251856    -0.31400
C705        C  0.87471822  0.85154867  0.41133527     0.02800
C706        C  0.86413457  0.83271024  0.39586258    -0.33100
H707        H  0.87116193  0.90776150  0.46299000     0.13900
H708        H  0.89458188  0.94247515  0.49521394     0.13700
H709        H  0.93182887  0.87595715  0.43244846     0.13500
H710        H  0.90844714  0.84130481  0.40030799     0.12600
C711        C  0.88863908  0.13069038  0.71069915     0.18900
C712        C  0.89690219  0.10770419  0.74196779    -0.10200
C713        C  0.91025663  0.08908532  0.72127519    -0.11100
C714        C  0.91542786  0.09339033  0.66922646     0.20500
C715        C  0.90703372  0.11613546  0.63777109    -0.13100
C716        C  0.89368085  0.13476830  0.65847699    -0.11400
C717        C  0.92939222  0.07462772  0.64824654     0.01400
C718        C  0.94096690  0.05868929  0.63048174    -0.31400
C719        C  0.87549801  0.15096808  0.73276312     0.02800
C720        C  0.86512418  0.16923859  0.75145253    -0.33100
H721        H  0.89314929  0.10443020  0.78243818     0.13900
H722        H  0.91663016  0.07153861  0.74593332     0.13700
H723        H  0.91089915  0.11963628  0.59744883     0.13500
H724        H  0.88742375  0.15256104  0.63399650     0.12600
C725        C  0.20159843  0.43104808  0.98842620     0.18900
C726        C  0.20604070  0.39898775  0.99943200    -0.10200
C727        C  0.19774644  0.37366037  0.97358445    -0.11100
C728        C  0.18495937  0.38025050  0.93658667     0.20500
C729        C  0.18052998  0.41230758  0.92554915    -0.13100
C730        C  0.18882804  0.43764276  0.95139600    -0.11400
C731        C  0.17604241  0.35420318  0.91102822     0.01400
C732        C  0.16789422  0.33290128  0.89058050    -0.31400
C733        C  0.21015918  0.45699104  0.01533377     0.02800
C734        C  0.21791643  0.47718962  0.03976680    -0.33100
H735        H  0.21587779  0.39358603  0.02806546     0.13900
H736        H  0.20123027  0.34898852  0.98262874     0.13700
H737        H  0.17060645  0.41769365  0.89719910     0.13500
H738        H  0.18526399  0.46230839  0.94262647     0.12600
C739        C  0.18194323  0.11833159  0.94818207     0.18900
C740        C  0.19805813  0.12306440  0.97107748    -0.10200
C741        C  0.20663968  0.09716561  0.99423124    -0.11100
C742        C  0.19915043  0.06645137  0.99448318     0.20500
C743        C  0.18302709  0.06169034  0.97160506    -0.13100
C744        C  0.17443498  0.08761913  0.94843898    -0.11400
C745        C  0.20804016  0.04014753  0.01893647     0.01400
C746        C  0.21642430  0.02017619  0.04165790    -0.31400
C747        C  0.17307288  0.14493822  0.92452502     0.02800
C748        C  0.16516874  0.16651228  0.90421539    -0.33100
H749        H  0.20395357  0.14672588  0.97110045     0.13900
H750        H  0.21908678  0.10108014  0.01202324     0.13700
H751        H  0.17711445  0.03804706  0.97177105     0.13500
H752        H  0.16195666  0.08376190  0.93083469     0.12600
C753        C  0.04264620  0.40762548  0.66705889     0.18900
C754        C  0.04040492  0.37417301  0.67051145    -0.10200
C755        C  0.05380620  0.35463638  0.68842346    -0.11100
C756        C  0.06951743  0.36845975  0.70288548     0.20500
C757        C  0.07178304  0.40188900  0.69925151    -0.13100
C758        C  0.05838061  0.42142984  0.68131871    -0.11400
C759        C  0.08319940  0.34830650  0.72187332     0.01400
C760        C  0.09408418  0.33030939  0.73835486    -0.31400
C761        C  0.02874471  0.42780229  0.64960722     0.02800
C762        C  0.01709805  0.44480852  0.63534453    -0.33100
H763        H  0.02829434  0.36324098  0.65961986     0.13900
H764        H  0.05190891  0.32880684  0.69115600     0.13700
H765        H  0.08386470  0.41282420  0.71041599     0.13500
H766        H  0.06025077  0.44727066  0.67882657     0.12600
C767        C  0.04077309  0.09087973  0.67323516     0.18900
C768        C  0.04889728  0.08127226  0.71960027    -0.10200
C769        C  0.06209347  0.10008097  0.74077484    -0.11100
C770        C  0.06720871  0.12852784  0.71560156     0.20500
C771        C  0.05903164  0.13815824  0.66938755    -0.13100
C772        C  0.04585913  0.11937906  0.64824458    -0.11400
C773        C  0.08068591  0.14816900  0.73712540     0.01400
C774        C  0.09154040  0.16626620  0.75346579    -0.31400
C775        C  0.02724791  0.07158812  0.65112895     0.02800
C776        C  0.01591342  0.05573636  0.63195957    -0.33100
H777        H  0.04504435  0.05929479  0.73929271     0.13900
H778        H  0.06828690  0.09247870  0.77664141     0.13700
H779        H  0.06284079  0.16017870  0.64972722     0.13500
H780        H  0.03965243  0.12706084  0.61244028     0.12600
loop_ 
_geom_bond_atom_site_label_1 
_geom_bond_atom_site_label_2 
_geom_bond_distance 
_geom_bond_site_symmetry_2 
_ccdc_geom_bond_type 
N1            C6   1.351       .  A
N1            C5   1.352       .  A
N1           H33   1.038       .  S
N2            C9   1.352       .  A
N2           C10   1.350       .  A
N3            C8   1.353       .  A
N3            C7   1.353       .  A
N3           H34   1.036       .  S
N4           C11   1.352       .  A
N4           C12   1.352       .  A
C5           C13   1.388       .  A
C5           C21   1.412       .  A
C6           C22   1.412       .  A
C6           C14   1.388       .  A
C7           C15   1.388       .  A
C7           C24   1.415       .  A
C8           C23   1.415       .  A
C8           C16   1.388       .  A
C9           C21   1.410       .  A
C9           C17   1.386       .  A
C10          C24   1.412       .  A
C10          C18   1.388       .  A
C11          C19   1.386       .  A
C11          C22   1.412       .  A
C12          C20   1.387       .  A
C12          C23   1.414       .  A
C13          C14   1.375       .  A
C13          H25   1.082       .  S
C14          H26   1.082       .  S
C15          C16   1.377       .  A
C15          H27   1.083       .  S
C16          H28   1.082       .  S
C17          C18   1.373       .  A
C17          H29   1.082       .  S
C18          H30   1.082       .  S
C19          C20   1.373       .  A
C19          H31   1.082       .  S
C20          H32   1.082       .  S
C21         C774   1.449       .  S
C22         C760   1.449       .  S
C23         C732   1.452       .  S
C24         C748   1.447       .  S
O35         Cu43   2.010       .  S
O35          C45   1.277   1_655  A
O36         Cu43   2.011   1_545  S
O36          C46   1.277       .  A
O37         Cu43   2.003       .  S
O37          C47   1.275       .  A
O38         Cu43   2.006   1_545  S
O38          C48   1.276   1_655  A
O39         Cu44   2.011       .  S
O39          C48   1.277   1_655  A
O40         Cu44   2.009   1_565  S
O40          C47   1.276       .  A
O41         Cu44   2.011       .  S
O41          C46   1.276       .  A
O42         Cu44   2.011   1_565  S
O42          C45   1.276   1_655  A
Cu43        Cu44   2.380   1_565  S
C45         C690   1.435       .  S
C46         C718   1.436       .  S
C47         C704   1.431       .  S
C48         C776   1.434       .  S
O49         Cu57   2.014       .  S
O49          C59   1.277       .  A
O50         Cu57   2.012       .  S
O50          C60   1.277   1_655  A
O51         Cu57   2.011       .  S
O51          C61   1.277   1_655  A
O52         Cu57   2.012       .  S
O52          C62   1.277       .  A
O53         Cu58   2.003       .  S
O53          C62   1.275       .  A
O54         Cu58   2.003       .  S
O54          C61   1.275   1_655  A
O55         Cu58   2.007       .  S
O55          C60   1.276   1_655  A
O56         Cu58   2.007       .  S
O56          C59   1.276       .  A
Cu57        Cu58   2.380       .  S
C59         C676   1.435       .  S
C60         C762   1.435       .  S
C61         C648   1.432       .  S
C62         C664   1.433       .  S
N63          C68   1.353       .  A
N63          C67   1.354       .  A
N63          H95   1.036       .  S
N64          C71   1.350       .  A
N64          C72   1.350       .  A
N65          C70   1.352       .  A
N65          C69   1.352       .  A
N65          H96   1.036       .  S
N66          C73   1.350       .  A
N66          C74   1.352       .  A
C67          C75   1.387       .  A
C67          C83   1.415       .  A
C68          C84   1.415       .  A
C68          C76   1.388       .  A
C69          C77   1.388       .  A
C69          C86   1.412       .  A
C70          C85   1.411       .  A
C70          C78   1.387       .  A
C71          C83   1.411       .  A
C71          C79   1.387       .  A
C72          C86   1.409       .  A
C72          C80   1.386       .  A
C73          C81   1.388       .  A
C73          C84   1.412       .  A
C74          C82   1.385       .  A
C74          C85   1.410       .  A
C75          C76   1.377       .  A
C75          H87   1.083       .  S
C76          H88   1.082       .  S
C77          C78   1.375       .  A
C77          H89   1.082       .  S
C78          H90   1.082       .  S
C79          C80   1.373       .  A
C79          H91   1.082       .  S
C80          H92   1.082       .  S
C81          C82   1.372       .  A
C81          H93   1.082       .  S
C82          H94   1.082       .  S
C83         C634   1.450       .  S
C84         C620   1.447       .  S
C85         C692   1.450       .  S
C86         C650   1.446       .  S
C97         C564   1.466       .  S
C97         C580   1.466       .  S
C97         C592   1.466       .  S
C97         C608   1.468       .  S
C98         C510   1.469       .  S
C98         C522   1.470   1_565  S
C98         C538   1.468       .  S
C98         C550   1.470   1_565  S
N99         C104   1.354       .  A
N99         C103   1.355       .  A
N99         H131   1.037       .  S
N100        C107   1.351       .  A
N100        C108   1.352       .  A
N101        C106   1.352       .  A
N101        C105   1.353       .  A
N101        H132   1.038       .  S
N102        C109   1.351       .  A
N102        C110   1.352       .  A
C103        C111   1.388       .  A
C103        C119   1.418       .  A
C104        C120   1.417       .  A
C104        C112   1.387       .  A
C105        C113   1.388       .  A
C105        C122   1.413       .  A
C106        C121   1.412       .  A
C106        C114   1.387       .  A
C107        C119   1.413       .  A
C107        C115   1.388       .  A
C108        C122   1.411       .  A
C108        C116   1.386       .  A
C109        C117   1.388       .  A
C109        C120   1.413       .  A
C110        C118   1.386       .  A
C110        C121   1.410       .  A
C111        C112   1.377       .  A
C111        H123   1.082       .  S
C112        H124   1.082       .  S
C113        C114   1.374       .  A
C113        H125   1.082       .  S
C114        H126   1.082       .  S
C115        C116   1.373       .  A
C115        H127   1.082       .  S
C116        H128   1.082       .  S
C117        C118   1.372       .  A
C117        H129   1.082       .  S
C118        H130   1.082       .  S
C119        C524   1.453       .  S
C120        C566   1.450       .  S
C121        C482   1.448       .  S
C122        C494   1.450       .  S
N133        C138   1.353       .  A
N133        C137   1.353       .  A
N133        H165   1.035       .  S
N134        C141   1.353       .  A
N134        C142   1.352       .  A
N135        C140   1.354       .  A
N135        C139   1.354       .  A
N135        H166   1.034       .  S
N136        C143   1.353       .  A
N136        C144   1.352       .  A
C137        C145   1.388       .  A
C137        C153   1.415       .  A
C138        C154   1.414       .  A
C138        C146   1.388       .  A
C139        C147   1.388       .  A
C139        C156   1.417       .  A
C140        C155   1.417       .  A
C140        C148   1.388       .  A
C141        C153   1.413       .  A
C141        C149   1.386       .  A
C142        C156   1.415       .  A
C142        C150   1.388       .  A
C143        C151   1.386       .  A
C143        C154   1.413       .  A
C144        C152   1.388       .  A
C144        C155   1.415       .  A
C145        C146   1.374       .  A
C145        H157   1.082       .  S
C146        H158   1.082       .  S
C147        C148   1.377       .  A
C147        H159   1.082       .  S
C148        H160   1.082       .  S
C149        C150   1.373       .  A
C149        H161   1.082       .  S
C150        H162   1.082       .  S
C151        C152   1.373       .  A
C151        H163   1.082       .  S
C152        H164   1.082       .  S
C153        C466   1.452       .  S
C154        C452   1.451       .  S
C155        C508   1.453       .  S
C156        C578   1.453       .  S
N167        C172   1.351       .  A
N167        C171   1.353       .  A
N167        H199   1.036       .  S
N168        C175   1.352       .  A
N168        C176   1.351       .  A
N169        C174   1.354       .  A
N169        C173   1.354       .  A
N169        H200   1.036       .  S
N170        C177   1.352       .  A
N170        C178   1.351       .  A
C171        C179   1.388       .  A
C171        C187   1.413       .  A
C172        C188   1.412       .  A
C172        C180   1.388       .  A
C173        C181   1.388       .  A
C173        C190   1.418       .  A
C174        C189   1.417       .  A
C174        C182   1.387       .  A
C175        C187   1.412       .  A
C175        C183   1.386       .  A
C176        C190   1.414       .  A
C176        C184   1.388       .  A
C177        C185   1.386       .  A
C177        C188   1.411       .  A
C178        C186   1.388       .  A
C178        C189   1.413       .  A
C179        C180   1.374       .  A
C179        H191   1.082       .  S
C180        H192   1.083       .  S
C181        C182   1.377       .  A
C181        H193   1.082       .  S
C182        H194   1.082       .  S
C183        C184   1.373       .  A
C183        H195   1.082       .  S
C184        H196   1.082       .  S
C185        C186   1.372       .  A
C185        H197   1.082       .  S
C186        H198   1.082       .  S
C187        C438   1.450       .  S
C188        C426   1.446       .  S
C189        C410   1.451       .  S
C190        C396   1.453       .  S
C201        C382   1.463   1_565  S
C201        C412   1.465       .  S
C201        C622   1.464       .  S
C201        C746   1.462   1_565  S
N202        C207   1.354       .  A
N202        C206   1.353       .  A
N202        H234   1.035       .  S
N203        C210   1.350       .  A
N203        C211   1.351       .  A
N204        C209   1.352       .  A
N204        C208   1.352       .  A
N204        H235   1.036       .  S
N205        C212   1.350       .  A
N205        C213   1.351       .  A
C206        C214   1.388       .  A
C206        C222   1.415       .  A
C207        C223   1.415       .  A
C207        C215   1.387       .  A
C208        C216   1.388       .  A
C208        C225   1.412       .  A
C209        C224   1.412       .  A
C209        C217   1.388       .  A
C210        C222   1.412       .  A
C210        C218   1.388       .  A
C211        C225   1.410       .  A
C211        C219   1.386       .  A
C212        C220   1.388       .  A
C212        C223   1.412       .  A
C213        C221   1.386       .  A
C213        C224   1.410       .  A
C214        C215   1.376       .  A
C214        H226   1.082       .  S
C215        H227   1.082       .  S
C216        C217   1.374       .  A
C216        H228   1.082       .  S
C217        H229   1.083       .  S
C218        C219   1.372       .  A
C218        H230   1.082       .  S
C219        H231   1.083       .  S
C220        C221   1.372       .  A
C220        H232   1.082       .  S
C221        H233   1.082       .  S
C222        C384   1.448       .  S
C223        C342   1.450       .  S
C224        C354   1.446       .  S
C225        C370   1.446       .  S
C236        C340   1.467       .  S
C236        C398   1.470       .  S
C236        C636   1.466       .  S
C236        C734   1.468       .  S
O237       Cu245   2.004       .  S
O237        C247   1.276       .  A
O238       Cu245   2.006   1_545  S
O238        C248   1.276       .  A
O239       Cu245   2.004       .  S
O239        C249   1.276       .  A
O240       Cu245   2.003   1_545  S
O240        C250   1.276       .  A
O241       Cu246   2.005       .  S
O241        C250   1.276       .  A
O242       Cu246   2.007   1_565  S
O242        C249   1.276       .  A
O243       Cu246   2.010       .  S
O243        C248   1.277       .  A
O244       Cu246   2.008   1_565  S
O244        C247   1.276       .  A
Cu245      Cu246   2.381   1_565  S
C247        C424   1.432       .  S
C248        C496   1.434       .  S
C249        C454   1.432       .  S
C250        C368   1.430       .  S
O251       Cu259   2.011       .  S
O251        C261   1.277       .  A
O252       Cu259   2.009       .  S
O252        C262   1.276       .  A
O253       Cu259   2.008       .  S
O253        C263   1.276       .  A
O254       Cu259   2.006       .  S
O254        C264   1.276       .  A
O255       Cu260   2.010       .  S
O255        C264   1.277       .  A
O256       Cu260   2.010       .  S
O256        C263   1.277       .  A
O257       Cu260   2.008       .  S
O257        C262   1.276       .  A
O258       Cu260   2.011       .  S
O258        C261   1.277       .  A
Cu259      Cu260   2.380       .  S
C261        C468   1.436       .  S
C262        C356   1.433       .  S
C263        C440   1.435       .  S
C264        C480   1.433       .  S
N265        C270   1.352       .  A
N265        C269   1.353       .  A
N265        H297   1.039       .  S
N266        C273   1.351       .  A
N266        C274   1.351       .  A
N267        C272   1.355       .  A
N267        C271   1.355       .  A
N267        H298   1.037       .  S
N268        C275   1.352       .  A
N268        C276   1.351       .  A
C269        C277   1.388       .  A
C269        C285   1.412       .  A
C270        C286   1.411       .  A
C270        C278   1.387       .  A
C271        C279   1.388       .  A
C271        C288   1.418       .  A
C272        C287   1.417       .  A
C272        C280   1.387       .  A
C273        C285   1.411       .  A
C273        C281   1.386       .  A
C274        C288   1.413       .  A
C274        C282   1.388       .  A
C275        C283   1.386       .  A
C275        C286   1.411       .  A
C276        C284   1.388       .  A
C276        C287   1.414       .  A
C277        C278   1.374       .  A
C277        H289   1.082       .  S
C278        H290   1.083       .  S
C279        C280   1.378       .  A
C279        H291   1.082       .  S
C280        H292   1.082       .  S
C281        C282   1.374       .  A
C281        H293   1.082       .  S
C282        H294   1.082       .  S
C283        C284   1.374       .  A
C283        H295   1.082       .  S
C284        H296   1.082       .  S
C285        C720   1.450       .  S
C286        C662   1.449       .  S
C287        C606   1.452       .  S
C288        C552   1.453       .  S
N299        C304   1.355       .  A
N299        C303   1.353       .  A
N299        H331   1.035       .  S
N300        C307   1.350       .  A
N300        C308   1.352       .  A
N301        C306   1.351       .  A
N301        C305   1.353       .  A
N301        H332   1.037       .  S
N302        C309   1.351       .  A
N302        C310   1.350       .  A
C303        C311   1.388       .  A
C303        C319   1.416       .  A
C304        C320   1.417       .  A
C304        C312   1.387       .  A
C305        C313   1.387       .  A
C305        C322   1.412       .  A
C306        C321   1.411       .  A
C306        C314   1.388       .  A
C307        C319   1.413       .  A
C307        C315   1.388       .  A
C308        C322   1.410       .  A
C308        C316   1.386       .  A
C309        C317   1.387       .  A
C309        C320   1.412       .  A
C310        C318   1.386       .  A
C310        C321   1.410       .  A
C311        C312   1.377       .  A
C311        H323   1.082       .  S
C312        H324   1.082       .  S
C313        C314   1.375       .  A
C313        H325   1.082       .  S
C314        H326   1.082       .  S
C315        C316   1.373       .  A
C315        H327   1.082       .  S
C316        H328   1.082       .  S
C317        C318   1.373       .  A
C317        H329   1.082       .  S
C318        H330   1.082       .  S
C319        C594   1.448       .  S
C320        C536   1.453       .  S
C321        C706   1.445       .  S
C322        C678   1.450       .  S
C333        C334   1.402       .  A
C333        C338   1.400       .  A
C333        C341   1.439       .  S
C334        C335   1.400       .  A
C334        H343   1.084       .  S
C335        C336   1.401       .  A
C335        H344   1.083       .  S
C336        C337   1.402       .  A
C336        C339   1.440       .  S
C337        C338   1.398       .  A
C337        H345   1.084       .  S
C338        H346   1.084       .  S
C339        C340   1.207       .  T
C341        C342   1.206       .  T
C347        C348   1.401       .  A
C347        C352   1.401       .  A
C347        C355   1.438       .  S
C348        C349   1.399       .  A
C348        H357   1.083       .  S
C349        C350   1.401       .  A
C349        H358   1.084       .  S
C350        C351   1.400       .  A
C350        C353   1.435       .  S
C351        C352   1.397       .  A
C351        H359   1.084       .  S
C352        H360   1.083       .  S
C353        C354   1.204       .  T
C355        C356   1.205       .  T
C361        C362   1.400       .  A
C361        C366   1.401       .  A
C361        C369   1.435       .  S
C362        C363   1.396       .  A
C362        H371   1.084       .  S
C363        C364   1.400       .  A
C363        H372   1.084       .  S
C364        C365   1.401       .  A
C364        C367   1.435       .  S
C365        C366   1.399       .  A
C365        H373   1.083       .  S
C366        H374   1.083       .  S
C367        C368   1.203       .  T
C369        C370   1.204       .  T
C375        C376   1.402       .  A
C375        C380   1.400       .  A
C375        C383   1.437       .  S
C376        C377   1.399       .  A
C376        H385   1.084       .  S
C377        C378   1.400       .  A
C377        H386   1.083       .  S
C378        C379   1.401       .  A
C378        C381   1.436       .  S
C379        C380   1.397       .  A
C379        H387   1.084       .  S
C380        H388   1.084       .  S
C381        C382   1.205       .  T
C383        C384   1.204       .  T
C389        C390   1.401       .  A
C389        C394   1.402   1_556  A
C389        C397   1.443   1_556  S
C390        C391   1.401       .  A
C390        H399   1.083       .  S
C391        C392   1.403       .  A
C391        H400   1.083       .  S
C392        C393   1.401       .  A
C392        C395   1.442       .  S
C393        C394   1.400   1_556  A
C393        H401   1.083       .  S
C394        H402   1.084       .  S
C395        C396   1.208       .  T
C397        C398   1.209       .  T
C403        C404   1.401       .  A
C403        C408   1.401       .  A
C403        C411   1.438   1_556  S
C404        C405   1.400       .  A
C404        H413   1.083       .  S
C405        C406   1.403       .  A
C405        H414   1.084       .  S
C406        C407   1.400       .  A
C406        C409   1.440       .  S
C407        C408   1.397       .  A
C407        H415   1.083       .  S
C408        H416   1.084   1_556  S
C409        C410   1.206       .  T
C411        C412   1.206       .  T
C417        C418   1.401       .  A
C417        C422   1.400       .  A
C417        C425   1.435       .  S
C418        C419   1.397       .  A
C418        H427   1.084       .  S
C419        C420   1.400       .  A
C419        H428   1.083       .  S
C420        C421   1.401       .  A
C420        C423   1.437       .  S
C421        C422   1.398       .  A
C421        H429   1.083       .  S
C422        H430   1.083       .  S
C423        C424   1.204       .  T
C425        C426   1.204       .  T
C431        C432   1.402       .  A
C431        C436   1.401       .  A
C431        C439   1.440       .  S
C432        C433   1.400       .  A
C432        H441   1.083       .  S
C433        C434   1.401       .  A
C433        H442   1.083       .  S
C434        C435   1.401       .  A
C434        C437   1.440       .  S
C435        C436   1.399       .  A
C435        H443   1.083       .  S
C436        H444   1.083       .  S
C437        C438   1.206       .  T
C439        C440   1.206       .  T
C445        C446   1.401       .  A
C445        C450   1.401       .  A
C445        C453   1.438       .  S
C446        C447   1.398       .  A
C446        H455   1.083       .  S
C447        C448   1.401       .  A
C447        H456   1.083       .  S
C448        C449   1.402       .  A
C448        C451   1.439       .  S
C449        C450   1.399       .  A
C449        H457   1.084       .  S
C450        H458   1.084       .  S
C451        C452   1.206       .  T
C453        C454   1.205       .  T
C459        C460   1.402       .  A
C459        C464   1.401       .  A
C459        C467   1.441       .  S
C460        C461   1.400       .  A
C460        H469   1.083       .  S
C461        C462   1.401       .  A
C461        H470   1.083       .  S
C462        C463   1.402       .  A
C462        C465   1.441       .  S
C463        C464   1.399       .  A
C463        H471   1.084       .  S
C464        H472   1.083       .  S
C465        C466   1.207       .  T
C467        C468   1.207       .  T
C473        C474   1.401       .  A
C473        C478   1.400       .  A
C473        C481   1.437       .  S
C474        C475   1.399       .  A
C474        H483   1.083       .  S
C475        C476   1.402       .  A
C475        H484   1.083       .  S
C476        C477   1.400       .  A
C476        C479   1.438       .  S
C477        C478   1.397       .  A
C477        H485   1.083       .  S
C478        H486   1.084       .  S
C479        C480   1.205       .  T
C481        C482   1.205       .  T
C487        C488   1.402       .  A
C487        C492   1.400       .  A
C487        C495   1.439       .  S
C488        C489   1.400       .  A
C488        H497   1.083       .  S
C489        C490   1.401       .  A
C489        H498   1.083       .  S
C490        C491   1.401       .  A
C490        C493   1.439       .  S
C491        C492   1.397       .  A
C491        H499   1.084       .  S
C492        H500   1.083       .  S
C493        C494   1.206       .  T
C495        C496   1.205       .  T
C501        C502   1.402   1_556  A
C501        C506   1.401       .  A
C501        C509   1.443   1_556  S
C502        C503   1.400   1_554  A
C502        H511   1.084       .  S
C503        C504   1.401       .  A
C503        H512   1.084       .  S
C504        C505   1.402       .  A
C504        C507   1.442       .  S
C505        C506   1.401       .  A
C505        H513   1.083       .  S
C506        H514   1.083       .  S
C507        C508   1.208       .  T
C509        C510   1.208       .  T
C515        C516   1.401       .  A
C515        C520   1.403       .  A
C515        C523   1.443       .  S
C516        C517   1.399       .  A
C516        H525   1.083       .  S
C517        C518   1.402       .  A
C517        H526   1.084       .  S
C518        C519   1.402       .  A
C518        C521   1.443       .  S
C519        C520   1.402       .  A
C519        H527   1.083       .  S
C520        H528   1.084       .  S
C521        C522   1.209       .  T
C523        C524   1.208       .  T
C529        C530   1.402       .  A
C529        C534   1.402       .  A
C529        C537   1.442       .  S
C530        C531   1.401       .  A
C530        H539   1.083       .  S
C531        C532   1.403       .  A
C531        H540   1.083       .  S
C532        C533   1.401       .  A
C532        C535   1.442       .  S
C533        C534   1.399       .  A
C533        H541   1.083       .  S
C534        H542   1.084       .  S
C535        C536   1.208       .  T
C537        C538   1.208       .  T
C543        C544   1.401   1_556  A
C543        C548   1.403       .  A
C543        C551   1.443       .  S
C544        C545   1.400       .  A
C544        H553   1.083       .  S
C545        C546   1.402   1_554  A
C545        H554   1.084       .  S
C546        C547   1.402       .  A
C546        C549   1.443   1_556  S
C547        C548   1.401       .  A
C547        H555   1.083       .  S
C548        H556   1.083       .  S
C549        C550   1.209       .  T
C551        C552   1.208       .  T
C557        C558   1.403       .  A
C557        C562   1.400       .  A
C557        C565   1.440       .  S
C558        C559   1.401       .  A
C558        H567   1.083       .  S
C559        C560   1.401       .  A
C559        H568   1.083       .  S
C560        C561   1.401       .  A
C560        C563   1.440       .  S
C561        C562   1.398       .  A
C561        H569   1.084       .  S
C562        H570   1.083       .  S
C563        C564   1.207       .  T
C565        C566   1.206       .  T
C571        C572   1.401       .  A
C571        C576   1.402   1_556  A
C571        C579   1.440   1_556  S
C572        C573   1.400       .  A
C572        H581   1.083       .  S
C573        C574   1.402       .  A
C573        H582   1.083       .  S
C574        C575   1.401       .  A
C574        C577   1.442       .  S
C575        C576   1.400   1_556  A
C575        H583   1.083   1_556  S
C576        H584   1.084       .  S
C577        C578   1.208       .  T
C579        C580   1.207       .  T
C585        C586   1.402       .  A
C585        C590   1.400       .  A
C585        C593   1.438       .  S
C586        C587   1.400       .  A
C586        H595   1.084       .  S
C587        C588   1.401       .  A
C587        H596   1.083       .  S
C588        C589   1.402       .  A
C588        C591   1.439       .  S
C589        C590   1.398       .  A
C589        H597   1.084       .  S
C590        H598   1.084       .  S
C591        C592   1.207       .  T
C593        C594   1.205       .  T
C599        C600   1.401       .  A
C599        C604   1.402   1_556  A
C599        C607   1.442   1_556  S
C600        C601   1.401       .  A
C600        H609   1.083       .  S
C601        C602   1.403       .  A
C601        H610   1.083       .  S
C602        C603   1.401       .  A
C602        C605   1.442       .  S
C603        C604   1.399   1_556  A
C603        H611   1.083       .  S
C604        H612   1.084       .  S
C605        C606   1.208       .  T
C607        C608   1.208       .  T
C613        C614   1.401       .  A
C613        C618   1.401       .  A
C613        C621   1.437       .  S
C614        C615   1.396       .  A
C614        H623   1.084       .  S
C615        C616   1.399       .  A
C615        H624   1.084       .  S
C616        C617   1.402       .  A
C616        C619   1.436       .  S
C617        C618   1.400       .  A
C617        H625   1.084       .  S
C618        H626   1.083       .  S
C619        C620   1.204       .  T
C621        C622   1.205       .  T
C627        C628   1.401       .  A
C627        C632   1.402       .  A
C627        C635   1.439       .  S
C628        C629   1.400       .  A
C628        H637   1.083       .  S
C629        C630   1.402       .  A
C629        H638   1.084       .  S
C630        C631   1.401       .  A
C630        C633   1.440       .  S
C631        C632   1.398       .  A
C631        H639   1.083       .  S
C632        H640   1.084       .  S
C633        C634   1.206       .  T
C635        C636   1.206       .  T
C641        C642   1.400       .  A
C641        C646   1.401       .  A
C641        C649   1.436       .  S
C642        C643   1.397       .  A
C642        H651   1.084       .  S
C643        C644   1.400       .  A
C643        H652   1.083       .  S
C644        C645   1.402       .  A
C644        C647   1.437       .  S
C645        C646   1.399       .  A
C645        H653   1.083       .  S
C646        H654   1.083       .  S
C647        C648   1.204       .  T
C649        C650   1.204       .  T
C655        C656   1.401       .  A
C655        C660   1.401       .  A
C655        C663   1.438       .  S
C656        C657   1.399       .  A
C656        H665   1.084       .  S
C657        C658   1.402       .  A
C657        H666   1.084       .  S
C658        C659   1.400       .  A
C658        C661   1.438       .  S
C659        C660   1.398       .  A
C659        H667   1.083       .  S
C660        H668   1.083       .  S
C661        C662   1.206       .  T
C663        C664   1.205       .  T
C669        C670   1.401       .  A
C669        C674   1.401       .  A
C669        C677   1.439       .  S
C670        C671   1.397       .  A
C670        H679   1.084       .  S
C671        C672   1.400       .  A
C671        H680   1.083       .  S
C672        C673   1.402       .  A
C672        C675   1.440       .  S
C673        C674   1.400       .  A
C673        H681   1.083       .  S
C674        H682   1.083       .  S
C675        C676   1.206       .  T
C677        C678   1.206       .  T
C683        C684   1.401       .  A
C683        C688   1.402       .  A
C683        C691   1.439       .  S
C684        C685   1.400       .  A
C684        H693   1.083       .  S
C685        C686   1.402       .  A
C685        H694   1.083       .  S
C686        C687   1.401       .  A
C686        C689   1.440       .  S
C687        C688   1.399       .  A
C687        H695   1.083       .  S
C688        H696   1.084       .  S
C689        C690   1.206       .  T
C691        C692   1.206       .  T
C697        C698   1.400       .  A
C697        C702   1.400       .  A
C697        C705   1.435       .  S
C698        C699   1.398       .  A
C698        H707   1.083       .  S
C699        C700   1.401       .  A
C699        H708   1.083       .  S
C700        C701   1.400       .  A
C700        C703   1.436       .  S
C701        C702   1.396       .  A
C701        H709   1.084       .  S
C702        H710   1.084       .  S
C703        C704   1.204       .  T
C705        C706   1.203       .  T
C711        C712   1.401       .  A
C711        C716   1.402       .  A
C711        C719   1.440       .  S
C712        C713   1.399       .  A
C712        H721   1.083       .  S
C713        C714   1.401       .  A
C713        H722   1.083       .  S
C714        C715   1.402       .  A
C714        C717   1.441       .  S
C715        C716   1.399       .  A
C715        H723   1.083       .  S
C716        H724   1.084       .  S
C717        C718   1.206       .  T
C719        C720   1.206       .  T
C725        C726   1.402       .  A
C725        C730   1.401       .  A
C725        C733   1.441   1_556  S
C726        C727   1.400       .  A
C726        H735   1.084   1_556  S
C727        C728   1.401       .  A
C727        H736   1.083       .  S
C728        C729   1.402       .  A
C728        C731   1.442       .  S
C729        C730   1.400       .  A
C729        H737   1.083       .  S
C730        H738   1.083       .  S
C731        C732   1.207       .  T
C733        C734   1.208       .  T
C739        C740   1.400       .  A
C739        C744   1.402       .  A
C739        C747   1.436       .  S
C740        C741   1.397       .  A
C740        H749   1.084       .  S
C741        C742   1.401       .  A
C741        H750   1.084   1_556  S
C742        C743   1.400       .  A
C742        C745   1.436   1_556  S
C743        C744   1.398       .  A
C743        H751   1.083       .  S
C744        H752   1.084       .  S
C745        C746   1.204       .  T
C747        C748   1.204       .  T
C753        C754   1.401       .  A
C753        C758   1.402       .  A
C753        C761   1.440       .  S
C754        C755   1.399       .  A
C754        H763   1.083       .  S
C755        C756   1.402       .  A
C755        H764   1.084       .  S
C756        C757   1.401       .  A
C756        C759   1.439       .  S
C757        C758   1.399       .  A
C757        H765   1.083       .  S
C758        H766   1.083       .  S
C759        C760   1.206       .  T
C761        C762   1.206       .  T
C767        C768   1.402       .  A
C767        C772   1.400       .  A
C767        C775   1.439       .  S
C768        C769   1.400       .  A
C768        H777   1.083       .  S
C769        C770   1.401       .  A
C769        H778   1.083       .  S
C770        C771   1.401       .  A
C770        C773   1.439       .  S
C771        C772   1.398       .  A
C771        H779   1.084       .  S
C772        H780   1.083       .  S
C773        C774   1.206       .  T
C775        C776   1.206       .  T
