geometry optimzed in LAMMPS
_audit_creation_date              2020-11-30 
_audit_creation_method            'lammps2cif' 
_symmetry_space_group_name_H-M    'P1' 
_symmetry_Int_Tables_number       1 
_symmetry_cell_setting            triclinic 
loop_ 
_symmetry_equiv_pos_as_xyz 
  x,y,z 
_cell_length_a                    54.72237575 
_cell_length_b                    55.07559742716816 
_cell_length_c                    30.95856301034742 
_cell_angle_alpha                 89.89580459641203 
_cell_angle_beta                  90.3037388931227 
_cell_angle_gamma                 89.88681841067465 
loop_ 
_atom_site_label 
_atom_site_type_symbol 
_atom_site_fract_x 
_atom_site_fract_y 
_atom_site_fract_z 
_atom_site_charge 
C1          C  0.85746440  0.73547839  0.45855836     0.86600
C2          C  0.83793577  0.75553608  0.45954014    -0.53700
C3          C  0.83815673  0.77044698  0.99681579     0.09500
C4          C  0.85946170  0.76363584  0.02773245     0.20400
C5          C  0.88144379  0.74969914  0.46291932    -0.54400
C6          C  0.88207528  0.76469675  0.99817769     0.09600
C7          C  0.85475701  0.72181162  0.50114736    -0.53900
C8          C  0.85560493  0.73628245  0.03786508     0.10200
H9          H  0.82552596  0.75929402  0.43292860     0.14700
H10         H  0.86080115  0.77536450  0.05678263     0.00400
H11         H  0.89568766  0.74940547  0.43864503     0.15000
H12         H  0.85128821  0.70258416  0.00349068     0.14800
O13         O  0.88003736  0.61632102  0.28763262    -0.74300
O14         O  0.87653636  0.66842901  0.20436566    -0.74400
O15         O  0.87767992  0.66518944  0.29212705    -0.74400
O16         O  0.87917064  0.61941261  0.20008363    -0.74500
O17         O  0.83854645  0.61711606  0.20133270    -0.74400
O18         O  0.83702122  0.66367673  0.29284352    -0.74400
O19         O  0.83592736  0.66608278  0.20482699    -0.74400
O20         O  0.83941568  0.61482284  0.28872075    -0.74400
Ni21       Ni  0.87979790  0.64245715  0.24598320     1.25400
Ni22       Ni  0.83628956  0.64040776  0.24692848     1.25400
C23         C  0.86019173  0.60712861  0.30234567     0.87800
C24         C  0.85561295  0.67548348  0.19008041     0.87800
C25         C  0.85722927  0.67154128  0.30849101     0.87800
C26         C  0.85914446  0.61059272  0.18558297     0.88000
C27         C  0.88128486  0.26979164  0.04059717     0.86600
C28         C  0.86219387  0.24958572  0.04113508    -0.53700
C29         C  0.86223365  0.23520157  0.00547363     0.09500
C30         C  0.88241579  0.24200575  0.47201399     0.20400
C31         C  0.90543411  0.25596090  0.03409781    -0.54400
C32         C  0.90617486  0.24166115  0.99807697     0.09600
C33         C  0.87688887  0.28348500  0.99817918    -0.53900
C34         C  0.87878237  0.26926612  0.46136296     0.10200
H35         H  0.84927480  0.24702964  0.06728518     0.14700
H36         H  0.88248630  0.23017017  0.44303621     0.00400
H37         H  0.91991491  0.25531451  0.05794156     0.15000
H38         H  0.87399710  0.30299759  0.99675674     0.14800
O39         O  0.89103182  0.39074604  0.21081642    -0.74300
O40         O  0.89369955  0.33899521  0.29487224    -0.74400
O41         O  0.89405609  0.34187582  0.20722201    -0.74400
O42         O  0.89107694  0.38807214  0.29815996    -0.74500
O43         O  0.85044445  0.38602871  0.29725314    -0.74400
O44         O  0.85345779  0.33947789  0.20554316    -0.74400
O45         O  0.85310315  0.33690709  0.29364516    -0.74400
O46         O  0.85044278  0.38843569  0.20982782    -0.74400
Ni47       Ni  0.89388873  0.36495388  0.25281422     1.25400
Ni48       Ni  0.85041194  0.36257323  0.25157725     1.25400
C49         C  0.87027452  0.39811556  0.19628765     0.87800
C50         C  0.87373471  0.32963937  0.30876017     0.87800
C51         C  0.87441056  0.33338334  0.19066919     0.87800
C52         C  0.87033126  0.39485297  0.31264068     0.88000
O53         O  0.84426954  0.47854144  0.04510723    -0.74300
O54         O  0.84353312  0.52531927  0.45308576    -0.74400
O55         O  0.84529621  0.47634386  0.45800031    -0.74400
O56         O  0.84206340  0.52749730  0.03949346    -0.74500
O57         O  0.88272097  0.52941085  0.04000473    -0.74400
O58         O  0.88595324  0.47775001  0.45944284    -0.74400
O59         O  0.88416783  0.52679079  0.45440434    -0.74400
O60         O  0.88488900  0.48039224  0.04581121    -0.74400
Ni61       Ni  0.84192079  0.50172022  0.99854636     1.25400
Ni62       Ni  0.88544952  0.50347756  0.99923040     1.25400
C63         C  0.86491864  0.47180301  0.06097200     0.87800
C64         C  0.86369448  0.53377021  0.43831676     0.87800
C65         C  0.86602041  0.46870162  0.44473800     0.87800
C66         C  0.86192942  0.53686803  0.05353291     0.88000
C67         C  0.73966743  0.87097301  0.05338760     0.86600
C68         C  0.75962708  0.85157091  0.05055088    -0.53700
C69         C  0.77293952  0.85230496  0.01360114     0.09500
C70         C  0.76544720  0.87224222  0.48136931     0.20400
C71         C  0.75365999  0.89490483  0.04708795    -0.54400
C72         C  0.76696614  0.89625065  0.00989958     0.09600
C73         C  0.72444527  0.86803052  0.01192072    -0.53900
C74         C  0.73769675  0.86853565  0.47424035     0.10200
H75         H  0.76258440  0.83782327  0.07528033     0.14700
H76         H  0.77603618  0.87277766  0.45089859     0.00400
H77         H  0.75498759  0.90895822  0.07132620     0.15000
H78         H  0.70478547  0.86528766  0.01204132     0.14800
O79         O  0.66636173  0.87843573  0.30608590    -0.74300
O80         O  0.61732337  0.87311132  0.21653794    -0.74400
O81         O  0.61717865  0.87313428  0.30398625    -0.74400
O82         O  0.66651148  0.87870934  0.21836504    -0.74500
O83         O  0.67117397  0.83850883  0.21778499    -0.74400
O84         O  0.62151425  0.83291689  0.30423594    -0.74400
O85         O  0.62203613  0.83295074  0.21614417    -0.74400
O86         O  0.67077260  0.83826457  0.30609072    -0.74400
Ni87       Ni  0.64172075  0.87724400  0.26123512     1.25400
Ni88       Ni  0.64657785  0.83421930  0.26108735     1.25400
C89         C  0.67644345  0.85916397  0.32143146     0.87800
C90         C  0.61158297  0.85215937  0.20142912     0.87800
C91         C  0.61113281  0.85221742  0.31833125     0.87800
C92         C  0.67672420  0.85961744  0.20338115     0.88000
C93         C  0.27152962  0.84318008  0.46665079     0.86600
C94         C  0.25178702  0.82361729  0.46473806    -0.53700
C95         C  0.23495015  0.82404716  0.99813899     0.09500
C96         C  0.23972108  0.84502933  0.03064436     0.20400
C97         C  0.25765408  0.86723701  0.46939307    -0.54400
C98         C  0.24008237  0.86801267  0.00175630     0.09600
C99         C  0.28315474  0.84023384  0.51165875    -0.53900
C100        C  0.26665487  0.84134761  0.04549914     0.10200
H101        H  0.25071144  0.81054414  0.43855865     0.14700
H102        H  0.22651377  0.84592406  0.05767251     0.00400
H103        H  0.26051892  0.88202980  0.44671263     0.15000
H104        H  0.30212903  0.83788438  0.01858364     0.14800
O105        O  0.33643095  0.86092717  0.21051367    -0.74300
O106        O  0.38846029  0.86227122  0.29501221    -0.74400
O107        O  0.38608956  0.86159226  0.20729082    -0.74400
O108        O  0.33912874  0.86160197  0.29806520    -0.74500
O109        O  0.34040587  0.82106603  0.29965795    -0.74400
O110        O  0.38675271  0.82117614  0.20781201    -0.74400
O111        O  0.38963394  0.82188062  0.29541522    -0.74400
O112        O  0.33703432  0.82053622  0.21163481    -0.74400
Ni113      Ni  0.36248373  0.86301870  0.25257111     1.25400
Ni114      Ni  0.36342075  0.81972260  0.25355177     1.25400
C115        C  0.32804961  0.84053749  0.19702969     0.87800
C116        C  0.39750611  0.84233509  0.30963820     0.87800
C117        C  0.39438818  0.84144942  0.19277286     0.87800
C118        C  0.33267108  0.84131115  0.31447969     0.88000
O119        O  0.52964565  0.82526461  0.05188600    -0.74300
O120        O  0.48085335  0.82361113  0.46161296    -0.74400
O121        O  0.53040376  0.82590010  0.46533235    -0.74400
O122        O  0.47987405  0.82265274  0.04932410    -0.74500
O123        O  0.47764454  0.86301775  0.04920691    -0.74400
O124        O  0.52814442  0.86629193  0.46525823    -0.74400
O125        O  0.47874156  0.86395666  0.46190721    -0.74400
O126        O  0.52703295  0.86560681  0.05223863    -0.74400
Ni127      Ni  0.50518264  0.82267114  0.00668722     1.25400
Ni128      Ni  0.50277762  0.86588111  0.00696192     1.25400
C129        C  0.53642102  0.84590377  0.06705852     0.87800
C130        C  0.47185447  0.84346864  0.44644212     0.87800
C131        C  0.53756462  0.84653099  0.45118141     0.87800
C132        C  0.47037929  0.84239688  0.06330595     0.88000
C133        C  0.74513407  0.15050587  0.47399858     0.80200
C134        C  0.76526640  0.16953832  0.47247408    -0.53700
C135        C  0.78175351  0.16774949  0.00517512     0.09500
C136        C  0.77634701  0.14730166  0.03826595     0.20400
C137        C  0.75842544  0.12610664  0.47747196    -0.54400
C138        C  0.77508597  0.12404517  0.01040928     0.09600
C139        C  0.73328127  0.15356458  0.51852008    -0.53900
C140        C  0.74954229  0.15192838  0.05228025     0.10200
H141        H  0.76684133  0.18244209  0.44603916     0.14700
H142        H  0.78964172  0.14626077  0.06542653     0.00400
H143        H  0.75552574  0.11131875  0.45484581     0.15000
H144        H  0.71395641  0.15524804  0.02406857     0.14800
O145        O  0.62894474  0.13444545  0.30130024    -0.74300
O146        O  0.68079907  0.13378815  0.21847561    -0.74400
O147        O  0.67812467  0.13521084  0.30568724    -0.74400
O148        O  0.63145126  0.13309116  0.21408154    -0.74500
O149        O  0.63096240  0.17350274  0.21161361    -0.74400
O150        O  0.67686942  0.17575981  0.30467457    -0.74400
O151        O  0.68055580  0.17417724  0.21672243    -0.74400
O152        O  0.62779920  0.17482872  0.29914735    -0.74400
Ni153      Ni  0.65488175  0.13272898  0.25991142     1.25400
Ni154      Ni  0.65407929  0.17603789  0.25783695     1.25400
C155        C  0.61989666  0.15461908  0.31434098     0.87800
C156        C  0.68922496  0.15378852  0.20355335     0.87800
C157        C  0.68454467  0.15579337  0.32094605     0.87800
C158        C  0.62336509  0.15293269  0.19782390     0.88000
C159        C  0.27977884  0.12284478  0.05139565     0.86600
C160        C  0.25971500  0.14219010  0.04882924    -0.53700
C161        C  0.24666939  0.14201416  0.01135772     0.09500
C162        C  0.25472033  0.12277821  0.47995415     0.20400
C163        C  0.26602080  0.09892001  0.04355969    -0.54400
C164        C  0.25289065  0.09828559  0.00589541     0.09600
C165        C  0.29516875  0.12651632  0.01065008    -0.53900
C166        C  0.28239943  0.12684403  0.47384108     0.10200
H167        H  0.25660177  0.15557092  0.07398093     0.14700
H168        H  0.24412337  0.12274022  0.44926132     0.00400
H169        H  0.26487231  0.08426178  0.06668378     0.15000
H170        H  0.31483784  0.12917036  0.01153973     0.14800
O171        O  0.35177404  0.11500882  0.30638294    -0.74300
O172        O  0.40096199  0.11904435  0.21817134    -0.74400
O173        O  0.40097624  0.11993176  0.30559526    -0.74400
O174        O  0.35190198  0.11395179  0.21890829    -0.74500
O175        O  0.34757342  0.15418959  0.21722057    -0.74400
O176        O  0.39713151  0.16019074  0.30408774    -0.74400
O177        O  0.39663802  0.15922233  0.21646952    -0.74400
O178        O  0.34801655  0.15530018  0.30533015    -0.74400
Ni179      Ni  0.37652277  0.11556938  0.26235366     1.25400
Ni180      Ni  0.37213161  0.15866368  0.26073468     1.25400
C181        C  0.34205753  0.13455458  0.32091271     0.87800
C182        C  0.40686090  0.13981191  0.20250455     0.87800
C183        C  0.40728083  0.14094904  0.31911328     0.87800
C184        C  0.34195721  0.13304723  0.20313938     0.88000
O185        O  0.53726253  0.17216059  0.46592075    -0.74300
O186        O  0.48825091  0.16642570  0.05503589    -0.74400
O187        O  0.53775013  0.16997362  0.05389246    -0.74400
O188        O  0.48785892  0.16862010  0.46691501    -0.74500
O189        O  0.49087844  0.12828859  0.46604732    -0.74400
O190        O  0.54078103  0.12966064  0.05261291    -0.74400
O191        O  0.49138094  0.12613766  0.05410556    -0.74400
O192        O  0.53999760  0.13184180  0.46480983    -0.74400
Ni193      Ni  0.51264416  0.17012532  0.01081304     1.25400
Ni194      Ni  0.51578714  0.12694955  0.00966800     1.25400
C195        C  0.54659997  0.15265424  0.45040426     0.87800
C196        C  0.48162030  0.14552293  0.06914241     0.87800
C197        C  0.54765125  0.15026953  0.06734137     0.87800
C198        C  0.48122509  0.14798999  0.45199775     0.88000
C199        C  0.13499291  0.72177124  0.03597382     0.86600
C200        C  0.15556438  0.74050283  0.03481857    -0.53700
C201        C  0.15522012  0.75526789  0.99960304     0.09500
C202        C  0.13424735  0.75031868  0.46776477     0.20400
C203        C  0.11146355  0.73689786  0.03126205    -0.54400
C204        C  0.11074663  0.75181148  0.99598041     0.09600
C205        C  0.13685553  0.70806967  0.99300997    -0.53900
C206        C  0.13633306  0.72286837  0.45725728     0.10200
H207        H  0.16946500  0.74192742  0.05989759     0.14700
H208        H  0.13411376  0.76205088  0.43860012     0.00400
H209        H  0.09664700  0.73684932  0.05405919     0.15000
H210        H  0.13873544  0.68846191  0.99097316     0.14800
O211        O  0.13310402  0.60138874  0.20654568    -0.74300
O212        O  0.12712455  0.65278597  0.28987195    -0.74400
O213        O  0.12725145  0.65007834  0.20243236    -0.74400
O214        O  0.13297511  0.60423871  0.29366072    -0.74500
O215        O  0.17340201  0.60884369  0.29417768    -0.74400
O216        O  0.16776804  0.65449013  0.20158475    -0.74400
O217        O  0.16748224  0.65761185  0.28979579    -0.74400
O218        O  0.17352405  0.60582568  0.20653781    -0.74400
Ni219      Ni  0.12871038  0.62699135  0.24809382     1.25400
Ni220      Ni  0.17200536  0.63191512  0.24803824     1.25400
C221        C  0.15422816  0.59506380  0.19265601     0.87800
C222        C  0.14631721  0.66343249  0.30435965     0.87800
C223        C  0.14653097  0.65954216  0.18651130     0.87800
C224        C  0.15404781  0.59897723  0.30913761     0.88000
C225        C  0.16409510  0.25994692  0.45620373     0.86600
C226        C  0.18375029  0.24007435  0.45818416    -0.53700
C227        C  0.18278718  0.22491303  0.99318264     0.09500
C228        C  0.16084594  0.23108565  0.02277735     0.20400
C229        C  0.14027184  0.24535891  0.45746504    -0.54400
C230        C  0.13867291  0.23050168  0.99160278     0.09600
C231        C  0.16544554  0.27303730  0.49959684    -0.53900
C232        C  0.16421811  0.25820258  0.03448452     0.10200
H233        H  0.19617849  0.23641928  0.43188831     0.14700
H234        H  0.15903672  0.21898995  0.05127843     0.00400
H235        H  0.12649690  0.24621994  0.43211852     0.15000
H236        H  0.16869307  0.29258929  0.00241107     0.14800
O237        O  0.14353090  0.37865764  0.28297434    -0.74300
O238        O  0.14419861  0.32597878  0.20159356    -0.74400
O239        O  0.14431914  0.32991085  0.28924634    -0.74400
O240        O  0.14340964  0.37490657  0.19592584    -0.74500
O241        O  0.18413237  0.37533557  0.19562288    -0.74400
O242        O  0.18502044  0.33046769  0.28966786    -0.74400
O243        O  0.18485822  0.32637181  0.20186217    -0.74400
O244        O  0.18419255  0.37935723  0.28292548    -0.74400
Ni245      Ni  0.14243666  0.35227385  0.24238911     1.25400
Ni246      Ni  0.18601023  0.35283995  0.24249601     1.25400
C247        C  0.16373465  0.38767666  0.29665637     0.87800
C248        C  0.16461440  0.31776023  0.18749101     0.87800
C249        C  0.16476034  0.32334379  0.30579008     0.87800
C250        C  0.16358302  0.38272112  0.18060671     0.88000
O251        O  0.18158867  0.46904507  0.44806563    -0.74300
O252        O  0.18124972  0.51470277  0.04206195    -0.74400
O253        O  0.18298406  0.46546129  0.03539540    -0.74400
O254        O  0.17980780  0.51803518  0.45478766    -0.74500
O255        O  0.13915058  0.51640707  0.45562368    -0.74400
O256        O  0.14226941  0.46426725  0.03529229    -0.74400
O257        O  0.14060413  0.51306187  0.04223220    -0.74400
O258        O  0.14095685  0.46761601  0.44872843    -0.74400
Ni259      Ni  0.18340083  0.49182332  0.99504004     1.25400
Ni260      Ni  0.13984922  0.49029369  0.99522655     1.25400
C261        C  0.16141295  0.46079557  0.43270048     0.87800
C262        C  0.16065347  0.52154538  0.05761378     0.87800
C263        C  0.16289931  0.45628786  0.04875155     0.87800
C264        C  0.15896669  0.52573917  0.44165175     0.88000
O265        O  0.17481401  0.01259786  0.46294359    -0.74300
O266        O  0.12315269  0.96654985  0.46912961    -0.74400
O267        O  0.12577061  0.01550111  0.46585045    -0.74400
O268        O  0.17208270  0.96308890  0.46773036    -0.74500
O269        O  0.17230322  0.96412280  0.03955840    -0.74400
O270        O  0.12699591  0.01732170  0.03761082    -0.74400
O271        O  0.12316404  0.96811569  0.04151148    -0.74400
O272        O  0.17630389  0.01349178  0.03440255    -0.74400
Ni273      Ni  0.14899207  0.98937927  0.46390015     1.25400
Ni274      Ni  0.14980582  0.99087052  0.04086681     1.25400
C275        C  0.18341652  0.02070822  0.99711143     0.87800
C276        C  0.11417690  0.95954962  0.00635392     0.87800
C277        C  0.11851453  0.02519209  0.00153756     0.87800
C278        C  0.17859189  0.95404226  0.00406996     0.88000
O279        O  0.99371401  0.16299353  0.45901029    -0.74300
O280        O  0.04024924  0.11137471  0.46505432    -0.74400
O281        O  0.99086518  0.11446998  0.46488163    -0.74400
O282        O  0.04365658  0.16009375  0.46068909    -0.74500
O283        O  0.04365726  0.16308150  0.03116213    -0.74400
O284        O  0.99105271  0.11766424  0.03562675    -0.74400
O285        O  0.04057820  0.11419804  0.03605187    -0.74400
O286        O  0.99395820  0.16660758  0.02913873    -0.74400
Ni287      Ni  0.01714976  0.13722451  0.45987130     1.25400
Ni288      Ni  0.01729114  0.14053711  0.03555737     1.25400
C289        C  0.98575204  0.17312369  0.99194865     0.87800
C290        C  0.04827936  0.10451989  0.00094073     0.87800
C291        C  0.98222208  0.10887394  0.00064901     0.87800
C292        C  0.05292209  0.16891588  0.99475355     0.88000
O293        O  0.97607878  0.83423399  0.03982033    -0.74300
O294        O  0.02963186  0.87865541  0.04043082    -0.74400
O295        O  0.98039287  0.88323105  0.04260466    -0.74400
O296        O  0.02566442  0.82961968  0.03600996    -0.74500
O297        O  0.02450147  0.83243400  0.46350148    -0.74400
O298        O  0.97941510  0.88515642  0.46992233    -0.74400
O299        O  0.02841658  0.88105606  0.46754955    -0.74400
O300        O  0.97479015  0.83641947  0.46757198    -0.74400
Ni301      Ni  0.00299676  0.85628673  0.04232575     1.25400
Ni302      Ni  0.00170073  0.85872050  0.46462971     1.25400
C303        C  0.96614667  0.82815096  0.00395602     0.87800
C304        C  0.03762564  0.88721990  0.00475365     0.87800
C305        C  0.97249015  0.89288605  0.00738686     0.87800
C306        C  0.03289988  0.82255851  0.99868067     0.88000
O307        O  0.84562041  0.98240707  0.46707727    -0.74300
O308        O  0.89533248  0.03070695  0.47173049    -0.74400
O309        O  0.89491740  0.98167170  0.46949127    -0.74400
O310        O  0.84627122  0.03205617  0.47106408    -0.74500
O311        O  0.84687094  0.03117250  0.04374750    -0.74400
O312        O  0.89430751  0.98012277  0.04223491    -0.74400
O313        O  0.89623745  0.02938393  0.04411744    -0.74400
O314        O  0.84471202  0.98178534  0.04021966    -0.74400
Ni315      Ni  0.87046788  0.00673961  0.46731565     1.25400
Ni316      Ni  0.87047362  0.00552498  0.04517770     1.25400
C317        C  0.83729694  0.97397815  0.00335562     0.87800
C318        C  0.90431081  0.03803125  0.00838927     0.87800
C319        C  0.90279556  0.97244264  0.00628873     0.87800
C320        C  0.83947423  0.04051680  0.00813788     0.88000
C321        C  0.92842503  0.94177438  0.04587614    -0.21200
C322        C  0.92134999  0.95272011  0.00658888    -0.09300
C323        C  0.93196266  0.94434374  0.96807313     0.29600
C324        C  0.94865198  0.92513883  0.96895758    -0.21200
C325        C  0.95532721  0.91380728  0.00808995    -0.09300
C326        C  0.94523568  0.92258298  0.04675935     0.29600
F327        F  0.95126475  0.91250044  0.08541117    -0.19800
H328        H  0.92074416  0.94789067  0.07613816     0.18000
H329        H  0.95628300  0.91907324  0.93861956     0.18000
F330        F  0.92624489  0.95454933  0.92936438    -0.19800
C331        C  0.92845273  0.06893037  0.46900925    -0.21200
C332        C  0.92362182  0.05687878  0.00786789    -0.09300
C333        C  0.93772673  0.06235156  0.04470139     0.29600
C334        C  0.95657198  0.07945105  0.04220178    -0.21200
C335        C  0.96172553  0.09141333  0.00308206    -0.09300
C336        C  0.94731373  0.08585463  0.46686828     0.29600
F337        F  0.95145093  0.09728682  0.42872010    -0.19800
H338        H  0.91800862  0.06531229  0.43991841     0.18000
H339        H  0.96743833  0.08301027  0.07083126     0.18000
F340        F  0.93379203  0.05083390  0.08282044    -0.19800
C341        C  0.07364877  0.07297460  0.46326732    -0.21200
C342        C  0.06646762  0.08441863  0.00191796    -0.09300
C343        C  0.07657552  0.07561868  0.04084719     0.29600
C344        C  0.09349335  0.05648728  0.04041057    -0.21200
C345        C  0.10078605  0.04570943  0.00130746    -0.09300
C346        C  0.09069739  0.05407935  0.46264962     0.29600
F347        F  0.09704880  0.04452794  0.42390031    -0.19800
H348        H  0.06617474  0.07924032  0.43275481     0.18000
H349        H  0.10085765  0.05008279  0.07091183     0.18000
F350        F  0.07021651  0.08541338  0.07939060    -0.19800
C351        C  0.08569809  0.93272874  0.46668705    -0.21200
C352        C  0.09459543  0.94103930  0.00711009    -0.09300
C353        C  0.08377626  0.93314901  0.04580362     0.29600
C354        C  0.06549197  0.91542126  0.04485633    -0.21200
C355        C  0.05763461  0.90525838  0.00546991    -0.09300
C356        C  0.06733280  0.91526385  0.46554581     0.29600
F357        F  0.05876734  0.90797074  0.42644781    -0.19800
H358        H  0.09237631  0.93973668  0.43625860     0.18000
H359        H  0.05729895  0.90984747  0.07505093     0.18000
F360        F  0.09063711  0.94258133  0.08447641    -0.19800
C361        C  0.14092444  0.41489883  0.34758475    -0.21200
C362        C  0.16327118  0.40753003  0.32948227    -0.09300
C363        C  0.18488190  0.41877540  0.34427871     0.29600
C364        C  0.18407146  0.43619840  0.37726226    -0.21200
C365        C  0.16178085  0.44302553  0.39626225    -0.09300
C366        C  0.14009550  0.43238028  0.38038718     0.29600
F367        F  0.11799243  0.43846726  0.39689657    -0.19800
H368        H  0.12392522  0.40681398  0.33685707     0.18000
H369        H  0.20106334  0.44421175  0.38819094     0.18000
F370        F  0.20690983  0.41289016  0.32724869    -0.19800
C371        C  0.18403946  0.40458585  0.12037718    -0.21200
C372        C  0.16313123  0.40078214  0.14560876    -0.09300
C373        C  0.14209473  0.41485247  0.13780421     0.29600
C374        C  0.14218114  0.43253027  0.10570899    -0.21200
C375        C  0.16318356  0.43665991  0.08096058    -0.09300
C376        C  0.18411887  0.42235887  0.08820901     0.29600
F377        F  0.20454008  0.42534621  0.06408941    -0.19800
H378        H  0.20036946  0.39379704  0.12555358     0.18000
H379        H  0.12588085  0.44342987  0.10097624     0.18000
F380        F  0.12168104  0.41221746  0.16209838    -0.19800
C381        C  0.10970103  0.20177631  0.95626640    -0.21200
C382        C  0.11768683  0.21351764  0.99408427    -0.09300
C383        C  0.10411251  0.20992948  0.53308961     0.29600
C384        C  0.08305521  0.19547020  0.53322890    -0.21200
C385        C  0.07496493  0.18462025  0.99405552    -0.09300
C386        C  0.08862630  0.18757759  0.95605165     0.29600
F387        F  0.08189853  0.17658319  0.91863947    -0.19800
H388        H  0.11982375  0.20369195  0.92647991     0.18000
H389        H  0.07294219  0.19364800  0.56302676     0.18000
F390        F  0.11087449  0.22163037  0.56975870    -0.19800
C391        C  0.18681681  0.29724015  0.35914804    -0.21200
C392        C  0.16492616  0.30783449  0.34462113    -0.09300
C393        C  0.14357628  0.30455405  0.36897215     0.29600
C394        C  0.14397823  0.28990111  0.40558036    -0.21200
C395        C  0.16532975  0.27740681  0.41812701    -0.09300
C396        C  0.18721837  0.28252702  0.39589082     0.29600
F397        F  0.20923049  0.27446058  0.41029375    -0.19800
H398        H  0.20378027  0.30047034  0.34222660     0.18000
H399        H  0.12728687  0.28812017  0.42392231     0.18000
F400        F  0.12230879  0.31578077  0.35804639    -0.19800
C401        C  0.14243513  0.29160910  0.13354324    -0.21200
C402        C  0.16465128  0.29896052  0.15265592    -0.09300
C403        C  0.18664648  0.28977711  0.13534946     0.29600
C404        C  0.18628083  0.27483815  0.09865150    -0.21200
C405        C  0.16412347  0.26857692  0.07865445    -0.09300
C406        C  0.14216264  0.27677287  0.09677908     0.29600
F407        F  0.12051838  0.27189004  0.07707472    -0.19800
H408        H  0.12519030  0.29833476  0.14570839     0.18000
H409        H  0.20341337  0.26912893  0.08448728     0.18000
F410        F  0.20861182  0.29609557  0.15245052    -0.19800
C411        C  0.17815902  0.57197112  0.13668279    -0.21200
C412        C  0.15627624  0.57537068  0.15965389    -0.09300
C413        C  0.13629448  0.56018127  0.14977388     0.29600
C414        C  0.13805693  0.54266452  0.11713934    -0.21200
C415        C  0.15973655  0.53960523  0.09352792    -0.09300
C416        C  0.17993290  0.55437076  0.10403862     0.29600
F417        F  0.20120176  0.55240797  0.08195164    -0.19800
H418        H  0.19386170  0.58332709  0.14334023     0.18000
H419        H  0.12227061  0.53145249  0.11029801     0.18000
F420        F  0.11495643  0.56210134  0.17166509    -0.19800
C421        C  0.17902666  0.55738079  0.39644958    -0.21200
C422        C  0.15766585  0.54532699  0.40934363    -0.09300
C423        C  0.13520700  0.55169303  0.39006229     0.29600
C424        C  0.13433690  0.56934397  0.35803101    -0.21200
C425        C  0.15570141  0.58107502  0.34440657    -0.09300
C426        C  0.17812775  0.57515043  0.36430249     0.29600
F427        F  0.19919858  0.58630551  0.35269411    -0.19800
H428        H  0.19652072  0.55293934  0.41099504     0.18000
H429        H  0.11679083  0.57354455  0.34345904     0.18000
F430        F  0.11403637  0.54056732  0.40123779    -0.19800
C431        C  0.06629976  0.76252155  0.00291135    -0.21200
C432        C  0.09006168  0.76925516  0.99000611    -0.09300
C433        C  0.09416090  0.79370950  0.47612008     0.29600
C434        C  0.07515656  0.81077340  0.47794995    -0.21200
C435        C  0.05210455  0.80398236  0.99501695    -0.09300
C436        C  0.04758287  0.77975314  0.00594943     0.29600
F437        F  0.02511301  0.77278436  0.01953912    -0.19800
H438        H  0.06233332  0.74393211  0.01185901     0.18000
H439        H  0.07857514  0.82927360  0.46769854     0.18000
F440        F  0.11645987  0.80113249  0.46266837    -0.19800
C441        C  0.16152115  0.67598451  0.11676282    -0.21200
C442        C  0.14403365  0.67605279  0.14959831    -0.09300
C443        C  0.12349907  0.69111868  0.14587611     0.29600
C444        C  0.12026940  0.70564744  0.10948612    -0.21200
C445        C  0.13741317  0.70540136  0.07557600    -0.09300
C446        C  0.15828521  0.69043099  0.08007987     0.29600
F447        F  0.17566719  0.68982628  0.04895620    -0.19800
H448        H  0.17746358  0.66435213  0.11908984     0.18000
H449        H  0.10441502  0.71715917  0.10938967     0.18000
F450        F  0.10673868  0.69226115  0.17801915    -0.19800
C451        C  0.16180234  0.70699505  0.39671083    -0.21200
C452        C  0.13858046  0.71212808  0.41342416    -0.09300
C453        C  0.11792172  0.70291143  0.39203227     0.29600
C454        C  0.12054514  0.68808291  0.35548591    -0.21200
C455        C  0.14386329  0.68190951  0.33960806    -0.09300
C456        C  0.16451512  0.69216725  0.36014410     0.29600
F457        F  0.18743684  0.68698912  0.34636653    -0.19800
H458        H  0.17796264  0.71355604  0.41328524     0.18000
H459        H  0.10424195  0.68065632  0.34063120     0.18000
F460        F  0.09524312  0.70719303  0.40789152    -0.19800
C461        C  0.43867129  0.12045776  0.15529506    -0.21200
C462        C  0.42574856  0.14135804  0.16794673    -0.09300
C463        C  0.43119464  0.16352925  0.14724048     0.29600
C464        C  0.44929175  0.16466505  0.11542076    -0.21200
C465        C  0.46237532  0.14381659  0.10305277    -0.09300
C466        C  0.45669219  0.12157313  0.12331410     0.29600
F467        F  0.46865546  0.10083057  0.11271100    -0.19800
H468        H  0.43494872  0.10310626  0.17037302     0.18000
H469        H  0.45296858  0.18200504  0.10026542     0.18000
F470        F  0.41898564  0.18420768  0.15736065    -0.19800
C471        C  0.43066778  0.16518533  0.37338053    -0.21200
C472        C  0.42644727  0.14291118  0.35261855    -0.09300
C473        C  0.44057309  0.12255985  0.36452949     0.29600
C474        C  0.45825095  0.12449513  0.39679735    -0.21200
C475        C  0.46236340  0.14666816  0.41786388    -0.09300
C476        C  0.44843694  0.16712406  0.40572402     0.29600
F477        F  0.45165996  0.18891308  0.42535029    -0.19800
H478        H  0.42003328  0.18112078  0.36491848     0.18000
H479        H  0.46884519  0.10850699  0.40510358     0.18000
F480        F  0.43758023  0.10074853  0.34485922    -0.19800
C481        C  0.22653082  0.03565264  0.50575355    -0.21200
C482        C  0.20194111  0.03979796  0.99398944    -0.09300
C483        C  0.19543311  0.06317562  0.97971279     0.29600
C484        C  0.21256481  0.08200938  0.98099928    -0.21200
C485        C  0.23642122  0.07760816  0.99599754    -0.09300
C486        C  0.24369694  0.05438525  0.50591759     0.29600
F487        F  0.26724250  0.04910859  0.51636671    -0.19800
H488        H  0.23216503  0.01742874  0.51457361     0.18000
H489        H  0.20678176  0.10023643  0.97258012     0.18000
F490        F  0.17215535  0.06805621  0.96695745    -0.19800
C491        C  0.23815735  0.18418285  0.48587615    -0.21200
C492        C  0.22921060  0.16171318  0.00205426    -0.09300
C493        C  0.20511088  0.16076013  0.01727452     0.29600
C494        C  0.19006044  0.18137249  0.01477390    -0.21200
C495        C  0.19907862  0.20332985  0.99798869    -0.09300
C496        C  0.22326213  0.20474048  0.48407519     0.29600
F497        F  0.23324350  0.22588524  0.47018190    -0.19800
H498        H  0.25706025  0.18555828  0.47589137     0.18000
H499        H  0.17136008  0.18007923  0.02575097     0.18000
F500        F  0.19641398  0.14011618  0.03554836    -0.19800
C501        C  0.29887608  0.10554036  0.12110399    -0.21200
C502        C  0.29506389  0.12510753  0.09243243    -0.09300
C503        C  0.30639296  0.14751176  0.10185129     0.29600
C504        C  0.32072919  0.15022703  0.13884677    -0.21200
C505        C  0.32463208  0.13059490  0.16688898    -0.09300
C506        C  0.31344458  0.10822145  0.15782238     0.29600
F507        F  0.31670850  0.08874418  0.18420397    -0.19800
H508        H  0.29135238  0.08778477  0.11544531     0.18000
H509        H  0.32947484  0.16754615  0.14472085     0.18000
F510        F  0.30393069  0.16678918  0.07474720    -0.19800
C511        C  0.29488949  0.11129232  0.40124141    -0.21200
C512        C  0.29477452  0.13010461  0.43171972    -0.09300
C513        C  0.30895400  0.15090870  0.42407804     0.29600
C514        C  0.32337372  0.15261570  0.38700217    -0.21200
C515        C  0.32450900  0.13334082  0.35736852    -0.09300
C516        C  0.30985073  0.11270407  0.36458610     0.29600
F517        F  0.31017628  0.09380330  0.33653144    -0.19800
H518        H  0.28426121  0.09502793  0.40687670     0.18000
H519        H  0.33451464  0.16864359  0.38244947     0.18000
F520        F  0.30930769  0.16934624  0.45312925    -0.19800
C521        C  0.59303542  0.17607613  0.36825112    -0.21200
C522        C  0.60045355  0.15441619  0.34801346    -0.09300
C523        C  0.58963796  0.13246284  0.36142694     0.29600
C524        C  0.57230896  0.13223994  0.39446100    -0.21200
C525        C  0.56506322  0.15378445  0.41511574    -0.09300
C526        C  0.57556936  0.17584274  0.40137867     0.29600
F527        F  0.56932883  0.19717678  0.42025990    -0.19800
H528        H  0.60101448  0.19326028  0.35886635     0.18000
H529        H  0.56448586  0.11497499  0.40379419     0.18000
F530        F  0.59567131  0.11103322  0.34266642    -0.19800
C531        C  0.59325355  0.17375630  0.14974455    -0.21200
C532        C  0.60466428  0.15216585  0.16330372    -0.09300
C533        C  0.59746084  0.13004649  0.14444090     0.29600
C534        C  0.57898824  0.12966023  0.11326868    -0.21200
C535        C  0.56733066  0.15121323  0.10013772    -0.09300
C536        C  0.57477986  0.17337288  0.11856750     0.29600
F537        F  0.56415061  0.19471509  0.10696305    -0.19800
H538        H  0.59838323  0.19104371  0.16369358     0.18000
H539        H  0.57380104  0.11235397  0.09946174     0.18000
F540        F  0.60817411  0.10872366  0.15593598    -0.19800
C541        C  0.81212256  0.06948377  0.04821261    -0.21200
C542        C  0.82301732  0.06199010  0.00918753    -0.09300
C543        C  0.81883311  0.07636669  0.47117941     0.29600
C544        C  0.80413175  0.09703843  0.47277921    -0.21200
C545        C  0.79273679  0.10362578  0.01185614    -0.09300
C546        C  0.79709943  0.09016366  0.04959085     0.29600
F547        F  0.78614237  0.09641186  0.08719711    -0.19800
H548        H  0.81503805  0.05920351  0.07764762     0.18000
H549        H  0.80134333  0.10744721  0.44341976     0.18000
F550        F  0.82940479  0.07047387  0.43303244    -0.19800
C551        C  0.70554715  0.16310142  0.43557342    -0.21200
C552        C  0.72894870  0.15241970  0.43414588    -0.09300
C553        C  0.73830483  0.14526821  0.39355894     0.29600
C554        C  0.72374717  0.14649605  0.35665545    -0.21200
C555        C  0.70028671  0.15628438  0.35889012    -0.09300
C556        C  0.69139414  0.16515998  0.39814506     0.29600
F557        F  0.66874180  0.17517476  0.40045297    -0.19800
H558        H  0.69815301  0.17041825  0.46505426     0.18000
H559        H  0.73086132  0.14001562  0.32616684     0.18000
F560        F  0.76159837  0.13708871  0.38942091    -0.19800
C561        C  0.73235533  0.13071989  0.11610093    -0.21200
C562        C  0.74020876  0.15244591  0.09715286    -0.09300
C563        C  0.73327761  0.17457582  0.11599932     0.29600
C564        C  0.71775424  0.17491887  0.15197665    -0.21200
C565        C  0.70856026  0.15317997  0.16954561    -0.09300
C566        C  0.71676225  0.13095993  0.15188963     0.29600
F567        F  0.70861319  0.10937892  0.16732652    -0.19800
H568        H  0.73694636  0.11351102  0.10127174     0.18000
H569        H  0.71200740  0.19229406  0.16474742     0.18000
F570        F  0.74021467  0.19589109  0.09777942    -0.19800
C571        C  0.44047425  0.86433191  0.39935722    -0.21200
C572        C  0.45320534  0.84298858  0.41076235    -0.09300
C573        C  0.44780745  0.82157145  0.38769074     0.29600
C574        C  0.42993180  0.82156980  0.35488316    -0.21200
C575        C  0.41702738  0.84286716  0.34381390    -0.09300
C576        C  0.42268108  0.86435701  0.36649694     0.29600
F577        F  0.41071343  0.88541697  0.35770459    -0.19800
H578        H  0.44408332  0.88114920  0.41628171     0.18000
H579        H  0.42623300  0.80475957  0.33800214     0.18000
F580        F  0.45992115  0.80058924  0.39639038    -0.19800
C581        C  0.43890503  0.86332607  0.10775637    -0.21200
C582        C  0.45072748  0.84166621  0.09602619    -0.09300
C583        C  0.44354272  0.81981023  0.11593514     0.29600
C584        C  0.42502004  0.81984964  0.14689120    -0.21200
C585        C  0.41333779  0.84158833  0.15877835    -0.09300
C586        C  0.42047000  0.86337768  0.13867133     0.29600
F587        F  0.40969736  0.88484985  0.14866999    -0.19800
H588        H  0.44390784  0.88042888  0.09296120     0.18000
H589        H  0.42004340  0.80281022  0.16195106     0.18000
F590        F  0.45453639  0.79842267  0.10609211    -0.19800
C591        C  0.19865344  0.91936912  0.46617791    -0.21200
C592        C  0.19397701  0.93167977  0.00484921    -0.09300
C593        C  0.20426960  0.92232140  0.04347717     0.29600
C594        C  0.21844472  0.90099774  0.04290958    -0.21200
C595        C  0.22263246  0.88871671  0.00401811    -0.09300
C596        C  0.21249624  0.89810769  0.46561669     0.29600
F597        F  0.21506482  0.88617218  0.42756009    -0.19800
H598        H  0.19065763  0.92571226  0.43612652     0.18000
H599        H  0.22679749  0.89452922  0.07257788     0.18000
F600        F  0.20103746  0.93389285  0.08168837    -0.19800
C601        C  0.21755015  0.78262342  0.98504190    -0.21200
C602        C  0.21398037  0.80673495  0.99886843    -0.09300
C603        C  0.19020601  0.81418461  0.01005228     0.29600
C604        C  0.17069478  0.79768477  0.00805267    -0.21200
C605        C  0.17447931  0.77374508  0.99407764    -0.09300
C606        C  0.19806174  0.76635033  0.98254790     0.29600
F607        F  0.20235751  0.74309025  0.97021287    -0.19800
H608        H  0.23561348  0.77618331  0.97662716     0.18000
H609        H  0.15275839  0.80340979  0.01857999     0.18000
F610        F  0.18566342  0.83742371  0.02206609    -0.19800
C611        C  0.31317575  0.83690123  0.43005036    -0.21200
C612        C  0.28801608  0.84225082  0.42718539    -0.09300
C613        C  0.27772881  0.84664206  0.38581729     0.29600
C614        C  0.29233206  0.84648679  0.34903217    -0.21200
C615        C  0.31721656  0.84129515  0.35260650    -0.09300
C616        C  0.32758902  0.83638406  0.39308372     0.29600
F617        F  0.35183541  0.83145996  0.39687351    -0.19800
H618        H  0.32209828  0.83283356  0.46027532     0.18000
H619        H  0.28419950  0.85020584  0.31771888     0.18000
F620        F  0.25346741  0.85120184  0.38097918    -0.19800
C621        C  0.28013521  0.86127805  0.11400505    -0.21200
C622        C  0.27604196  0.83985490  0.09067316    -0.09300
C623        C  0.28695109  0.81821577  0.10549352     0.29600
C624        C  0.30271196  0.81832276  0.14145082    -0.21200
C625        C  0.30833865  0.84009419  0.16311178    -0.09300
C626        C  0.29607811  0.86149685  0.14979867     0.29600
F627        F  0.30029669  0.88294131  0.16998637    -0.19800
H628        H  0.27235852  0.87823846  0.10260813     0.18000
H629        H  0.31157467  0.80150563  0.15079904     0.18000
F630        F  0.28369341  0.79724321  0.08323500    -0.19800
C631        C  0.57527026  0.86899052  0.16123144    -0.21200
C632        C  0.59245073  0.85021705  0.16689655    -0.09300
C633        C  0.59089894  0.82980906  0.13949341     0.29600
C634        C  0.57254374  0.82833950  0.10759823    -0.21200
C635        C  0.55541778  0.84719692  0.10191964    -0.09300
C636        C  0.55698593  0.86754138  0.12939497     0.29600
F637        F  0.54049619  0.88590680  0.12623865    -0.19800
H638        H  0.57576751  0.88480810  0.18195062     0.18000
H639        H  0.57201470  0.81257632  0.08674951     0.18000
F640        F  0.60748719  0.81152728  0.14264814    -0.19800
C641        C  0.55910672  0.86890978  0.39288184    -0.21200
C642        C  0.55659939  0.84767818  0.41756936    -0.09300
C643        C  0.57204290  0.82777608  0.40909746     0.29600
C644        C  0.58956164  0.82924931  0.37648176    -0.21200
C645        C  0.59207625  0.85054402  0.35187414    -0.09300
C646        C  0.57653629  0.87038006  0.36032099     0.29600
F647        F  0.57781659  0.89114319  0.33674236    -0.19800
H648        H  0.54729703  0.88439609  0.39835696     0.18000
H649        H  0.60140234  0.81380075  0.37090764     0.18000
F650        F  0.57060902  0.80706914  0.43278701    -0.19800
C651        C  0.79511230  0.95855271  0.51647097    -0.21200
C652        C  0.81867025  0.95478147  0.00110694    -0.09300
C653        C  0.82411178  0.93208360  0.98276612     0.29600
C654        C  0.80679771  0.91334654  0.98354530    -0.21200
C655        C  0.78362165  0.91719396  0.00166072    -0.09300
C656        C  0.77772735  0.94000826  0.51614222     0.29600
F657        F  0.75498506  0.94505888  0.53100064    -0.19800
H658        H  0.79033174  0.97612746  0.52964614     0.18000
H659        H  0.81196970  0.89557822  0.97180122     0.18000
F660        F  0.84658414  0.92769269  0.96610411    -0.19800
C661        C  0.72070022  0.88736849  0.12365099    -0.21200
C662        C  0.72423860  0.86824470  0.09409876    -0.09300
C663        C  0.71258431  0.84586094  0.10247611     0.29600
C664        C  0.69805803  0.84284028  0.13903583    -0.21200
C665        C  0.69435161  0.86212038  0.16775739    -0.09300
C666        C  0.70606418  0.88436991  0.15996306     0.29600
F667        F  0.70326200  0.90341614  0.18730107    -0.19800
H668        H  0.72854642  0.90515261  0.11903795     0.18000
H669        H  0.68899021  0.82559234  0.14402594     0.18000
F670        F  0.71490693  0.82692695  0.07475653    -0.19800
C671        C  0.71643514  0.84296484  0.41909223    -0.21200
C672        C  0.72533766  0.86577022  0.43164379    -0.09300
C673        C  0.71920182  0.88619364  0.40663145     0.29600
C674        C  0.70385257  0.88386695  0.37031414    -0.21200
C675        C  0.69437592  0.86108458  0.35803627    -0.09300
C676        C  0.70129868  0.84051957  0.38260510     0.29600
F677        F  0.69258731  0.81813969  0.37274243    -0.19800
H678        H  0.72063005  0.82708066  0.43847153     0.18000
H679        H  0.69895463  0.90004868  0.35231986     0.18000
F680        F  0.72703585  0.90856628  0.41863218    -0.19800
C681        C  0.84621485  0.42594411  0.14741391    -0.21200
C682        C  0.86902448  0.41780106  0.16306549    -0.09300
C683        C  0.89032728  0.42835237  0.14589953     0.29600
C684        C  0.88873500  0.44598660  0.11331856    -0.21200
C685        C  0.86596310  0.45371917  0.09694324    -0.09300
C686        C  0.84461996  0.44367816  0.11493633     0.29600
F687        F  0.82213186  0.45076891  0.10109167    -0.19800
H688        H  0.82943765  0.41842573  0.16007503     0.18000
H689        H  0.90552730  0.45343199  0.10058732     0.18000
F690        F  0.91282324  0.42152116  0.16007782    -0.19800
C691        C  0.84680020  0.42339678  0.35902894    -0.21200
C692        C  0.86935344  0.41329863  0.34720117    -0.09300
C693        C  0.89077313  0.42137987  0.36814542     0.29600
C694        C  0.88947718  0.43920611  0.40001064    -0.21200
C695        C  0.86692664  0.44939896  0.41166992    -0.09300
C696        C  0.84551324  0.44127256  0.39078445     0.29600
F697        F  0.82329654  0.45080254  0.40032069    -0.19800
H698        H  0.83005237  0.41768437  0.34329689     0.18000
H699        H  0.90624584  0.44506413  0.41550153     0.18000
F700        F  0.91303601  0.41213266  0.35806481    -0.19800
C701        C  0.97027867  0.21509511  0.00299747    -0.21200
C702        C  0.96614616  0.19136216  0.98892763    -0.09300
C703        C  0.94298238  0.18434973  0.47472978     0.29600
C704        C  0.92374343  0.20118588  0.47542791    -0.21200
C705        C  0.92743282  0.22532274  0.98979536    -0.09300
C706        C  0.95131832  0.23213101  0.00251501     0.29600
F707        F  0.95639370  0.25522322  0.01486198    -0.19800
H708        H  0.98823374  0.22042696  0.01439412     0.18000
H709        H  0.90578531  0.19547797  0.46480801     0.18000
F710        F  0.93871610  0.16153213  0.46001874    -0.19800
C711        C  0.81916614  0.22501045  0.99137153    -0.21200
C712        C  0.84288811  0.21681118  0.00012234    -0.09300
C713        C  0.84633469  0.19326588  0.51163965     0.29600
C714        C  0.82639726  0.17732321  0.51513332    -0.21200
C715        C  0.80277479  0.18482130  0.00640795    -0.09300
C716        C  0.79929942  0.20934716  0.99470342     0.29600
F717        F  0.77653285  0.21845040  0.98778175    -0.19800
H718        H  0.81594557  0.24394563  0.98355894     0.18000
H719        H  0.82963150  0.15846546  0.52338866     0.18000
F720        F  0.86913449  0.18517455  0.52143274    -0.19800
C721        C  0.85524723  0.31094179  0.12905990    -0.21200
C722        C  0.87616855  0.31686652  0.15321337    -0.09300
C723        C  0.89899865  0.30801471  0.13961279     0.29600
C724        C  0.90071176  0.29322779  0.10336615    -0.21200
C725        C  0.87974224  0.28645467  0.07980370    -0.09300
C726        C  0.85699933  0.29627057  0.09241209     0.29600
F727        F  0.83639019  0.29178454  0.06916686    -0.19800
H728        H  0.83751479  0.31803879  0.13801946     0.18000
H729        H  0.91882597  0.28790394  0.09368796     0.18000
F730        F  0.91993456  0.31376208  0.16095354    -0.19800
C731        C  0.89685691  0.30071047  0.35750529    -0.21200
C732        C  0.87444636  0.31090461  0.34387150    -0.09300
C733        C  0.85305899  0.30427135  0.36636512     0.29600
C734        C  0.85442704  0.28921653  0.40289776    -0.21200
C735        C  0.87692582  0.28002357  0.41742014    -0.09300
C736        C  0.89809505  0.28538261  0.39381196     0.29600
F737        F  0.92018564  0.27708944  0.40754578    -0.19800
H738        H  0.91362335  0.30526955  0.34096019     0.18000
H739        H  0.83797989  0.28559056  0.42112540     0.18000
F740        F  0.83091608  0.31338595  0.35475181    -0.19800
C741        C  0.88368510  0.57825868  0.35036789    -0.21200
C742        C  0.86113433  0.58767534  0.33598624    -0.09300
C743        C  0.83956671  0.57866285  0.35491828     0.29600
C744        C  0.84066679  0.56109669  0.38758098    -0.21200
C745        C  0.86317396  0.55194622  0.40249365    -0.09300
C746        C  0.88477631  0.56060900  0.38310565     0.29600
F747        F  0.90702320  0.55214117  0.39565382    -0.19800
H748        H  0.90060845  0.58465649  0.33643453     0.18000
H749        H  0.82370476  0.55484663  0.40157399     0.18000
F750        F  0.81725282  0.58699684  0.34249687    -0.19800
C751        C  0.83884343  0.57869140  0.14130981    -0.21200
C752        C  0.85979712  0.59242040  0.15061436    -0.09300
C753        C  0.88126004  0.58818238  0.12683656     0.29600
C754        C  0.88170523  0.57028288  0.09502469    -0.21200
C755        C  0.86084937  0.55631656  0.08618419    -0.09300
C756        C  0.83928965  0.56079530  0.10953423     0.29600
F757        F  0.81878000  0.54748577  0.10268950    -0.19800
H758        H  0.82212439  0.58146760  0.15922691     0.18000
H759        H  0.89846562  0.56735061  0.07730376     0.18000
F760        F  0.90183057  0.60133741  0.13402524    -0.19800
C761        C  0.78170517  0.80904147  0.49143573    -0.21200
C762        C  0.79062896  0.83275066  0.00446827    -0.09300
C763        C  0.81540740  0.83488841  0.01603250     0.29600
C764        C  0.83086400  0.81449543  0.01447070    -0.21200
C765        C  0.82167427  0.79177181  0.00167936    -0.09300
C766        C  0.79718760  0.78890198  0.48981173     0.29600
F767        F  0.78748513  0.76690032  0.48008585    -0.19800
H768        H  0.76234106  0.80664123  0.48526829     0.18000
H769        H  0.84998634  0.81648951  0.02283864     0.18000
F770        F  0.82441258  0.85644853  0.03001347    -0.19800
C771        C  0.92982624  0.81138420  0.46638488    -0.21200
C772        C  0.94412419  0.81249048  0.00399833    -0.09300
C773        C  0.93665633  0.79969767  0.04123709     0.29600
C774        C  0.91577250  0.78498507  0.04001961    -0.21200
C775        C  0.90219875  0.78260770  0.00177596    -0.09300
C776        C  0.90918548  0.79660902  0.46533049     0.29600
F777        F  0.89560293  0.79584755  0.42852253    -0.19800
H778        H  0.93448950  0.82157959  0.43765505     0.18000
H779        H  0.91069792  0.77491590  0.06855680     0.18000
F780        F  0.94979423  0.80085038  0.07848474    -0.19800
C781        C  0.87832036  0.70683540  0.40648010    -0.21200
C782        C  0.85671272  0.71855153  0.41961395    -0.09300
C783        C  0.83473294  0.71261849  0.39791455     0.29600
C784        C  0.83509399  0.69769996  0.36143988    -0.21200
C785        C  0.85708766  0.68763450  0.34663613    -0.09300
C786        C  0.87867908  0.69194908  0.37021707     0.29600
F787        F  0.90015639  0.68133527  0.35910740    -0.19800
H788        H  0.89518957  0.70903231  0.42442658     0.18000
H789        H  0.81801113  0.69380883  0.34505291     0.18000
F790        F  0.81271308  0.72026523  0.41254924    -0.19800
C791        C  0.83337069  0.71098207  0.09175012    -0.21200
C792        C  0.85395672  0.72500436  0.08148275    -0.09300
C793        C  0.87430348  0.72422276  0.10929032     0.29600
C794        C  0.87442048  0.70882412  0.14551647    -0.21200
C795        C  0.85418885  0.69399432  0.15488465    -0.09300
C796        C  0.83332837  0.69576998  0.12806858     0.29600
F797        F  0.81344153  0.68163045  0.13507965    -0.19800
H798        H  0.81764795  0.71098031  0.07032898     0.18000
H799        H  0.89072167  0.70789039  0.16543390     0.18000
F800        F  0.89480562  0.73679832  0.09961381    -0.19800
C801        C  0.85623020  0.73586292  0.95928069     0.86600
C802        C  0.83686716  0.75604307  0.96096007    -0.53700
C803        C  0.83884837  0.77003701  0.49528867     0.09500
C804        C  0.85987587  0.76340420  0.52690605     0.20400
C805        C  0.88032424  0.74993805  0.96300042    -0.54400
C806        C  0.88276639  0.76453983  0.49803130     0.09600
C807        C  0.85386387  0.72212629  0.00189062    -0.53900
C808        C  0.85603069  0.73603552  0.53713075     0.10200
H809        H  0.82444189  0.76013100  0.93456533     0.14700
H810        H  0.86084525  0.77523437  0.55587003     0.00400
H811        H  0.89439822  0.74941826  0.93841567     0.15000
H812        H  0.85223686  0.70226135  0.50271118     0.14800
O813        O  0.87874914  0.61693332  0.78811171    -0.74300
O814        O  0.87556389  0.66917669  0.70511464    -0.74400
O815        O  0.87635016  0.66579246  0.79286697    -0.74400
O816        O  0.87828768  0.62014666  0.70073533    -0.74500
O817        O  0.83767463  0.61769400  0.70145386    -0.74400
O818        O  0.83568329  0.66427116  0.79305216    -0.74400
O819        O  0.83495047  0.66666363  0.70494026    -0.74400
O820        O  0.83812445  0.61535674  0.78879345    -0.74400
Ni821      Ni  0.87867253  0.64314671  0.74666701     1.25400
Ni822      Ni  0.83516203  0.64099555  0.74705028     1.25400
C823        C  0.85887472  0.60759850  0.80241763     0.87800
C824        C  0.85468241  0.67609273  0.69044280     0.87800
C825        C  0.85583577  0.67210979  0.80899906     0.87800
C826        C  0.85837139  0.61118325  0.68606039     0.88000
C827        C  0.88143729  0.27030629  0.53992475     0.86600
C828        C  0.86178143  0.25067544  0.53998077    -0.53700
C829        C  0.86196477  0.23597688  0.50477866     0.09500
C830        C  0.88197351  0.24207683  0.97190345     0.20400
C831        C  0.90527425  0.25573178  0.53500843    -0.54400
C832        C  0.90620426  0.24117802  0.49934149     0.09600
C833        C  0.87816693  0.28379905  0.49696883    -0.53900
C834        C  0.87734647  0.26928968  0.96211506     0.10200
H835        H  0.84849301  0.24860589  0.56569077     0.14700
H836        H  0.88189399  0.23046972  0.94263108     0.00400
H837        H  0.91941688  0.25492235  0.55944755     0.15000
H838        H  0.87588265  0.30336931  0.49484889     0.14800
O839        O  0.89010684  0.39017207  0.71166974    -0.74300
O840        O  0.89187555  0.33804389  0.79520288    -0.74400
O841        O  0.89284785  0.34134854  0.70769116    -0.74400
O842        O  0.88965550  0.38709445  0.79901604    -0.74500
O843        O  0.84900169  0.38552660  0.79721549    -0.74400
O844        O  0.85224025  0.33918004  0.70516163    -0.74400
O845        O  0.85122307  0.33650617  0.79333810    -0.74400
O846        O  0.84950795  0.38812088  0.70980443    -0.74400
Ni847      Ni  0.89254453  0.36418720  0.75346510     1.25400
Ni848      Ni  0.84903822  0.36219443  0.75134227     1.25400
C849        C  0.86948402  0.39769220  0.69673094     0.87800
C850        C  0.87168775  0.32906046  0.80884603     0.87800
C851        C  0.87327165  0.33305811  0.69063642     0.87800
C852        C  0.86889629  0.39401699  0.81317525     0.88000
O853        O  0.84451589  0.47848161  0.54557076    -0.74300
O854        O  0.84262168  0.52501707  0.95208116    -0.74400
O855        O  0.84446733  0.47604461  0.95766480    -0.74400
O856        O  0.84237835  0.52747699  0.54049316    -0.74500
O857        O  0.88302650  0.52933002  0.54189215    -0.74400
O858        O  0.88513459  0.47742734  0.95839402    -0.74400
O859        O  0.88325987  0.52646251  0.95260325    -0.74400
O860        O  0.88513400  0.48025957  0.54697638    -0.74400
Ni861      Ni  0.84249856  0.50184580  0.49922922     1.25400
Ni862      Ni  0.88601797  0.50358125  0.50075929     1.25400
C863        C  0.86506732  0.47165363  0.56171778     0.87800
C864        C  0.86269310  0.53343142  0.93688162     0.87800
C865        C  0.86511515  0.46827621  0.94429037     0.87800
C866        C  0.86215264  0.53680954  0.55501580     0.88000
C867        C  0.74012266  0.87018219  0.55291430     0.86600
C868        C  0.75995087  0.85064193  0.54952738    -0.53700
C869        C  0.77307353  0.85143297  0.51231557     0.09500
C870        C  0.76530643  0.87288591  0.98219662     0.20400
C871        C  0.75432503  0.89399224  0.54682542    -0.54400
C872        C  0.76738330  0.89547025  0.50938632     0.09600
C873        C  0.72469820  0.86749336  0.51165497    -0.53900
C874        C  0.73761082  0.86897694  0.97467653     0.10200
H875        H  0.76303484  0.83684501  0.57410798     0.14700
H876        H  0.77604187  0.87333186  0.95188576     0.00400
H877        H  0.75606435  0.90773898  0.57145580     0.15000
H878        H  0.70502998  0.86483965  0.51203314     0.14800
O879        O  0.66684226  0.87890127  0.80589633    -0.74300
O880        O  0.61747502  0.87369441  0.71683914    -0.74400
O881        O  0.61760888  0.87361873  0.80425536    -0.74400
O882        O  0.66671253  0.87920173  0.71806558    -0.74500
O883        O  0.67138156  0.83901340  0.71761730    -0.74400
O884        O  0.62184617  0.83339453  0.80413978    -0.74400
O885        O  0.62221679  0.83354152  0.71621103    -0.74400
O886        O  0.67109350  0.83871077  0.80592112    -0.74400
Ni887      Ni  0.64204836  0.87775998  0.76126275     1.25400
Ni888      Ni  0.64684782  0.83473447  0.76098669     1.25400
C889        C  0.67684715  0.85959099  0.82124940     0.87800
C890        C  0.61166327  0.85275718  0.70175376     0.87800
C891        C  0.61148829  0.85266598  0.81836771     0.87800
C892        C  0.67688910  0.86009096  0.70303502     0.88000
C893        C  0.27117235  0.84304250  0.96718698     0.86600
C894        C  0.25167277  0.82320630  0.96556249    -0.53700
C895        C  0.23515305  0.82447110  0.49741967     0.09500
C896        C  0.24007800  0.84531790  0.53008132     0.20400
C897        C  0.25695107  0.86690304  0.96957919    -0.54400
C898        C  0.24071426  0.86836510  0.50143610     0.09600
C899        C  0.28282277  0.84026063  0.01220798    -0.53900
C900        C  0.26696614  0.84140692  0.54493622     0.10200
H901        H  0.25073446  0.81007834  0.93946697     0.14700
H902        H  0.22682680  0.84625215  0.55704716     0.00400
H903        H  0.25956548  0.88157548  0.94655425     0.15000
H904        H  0.30250414  0.83817315  0.51801890     0.14800
O905        O  0.33597096  0.86153970  0.71098776    -0.74300
O906        O  0.38819329  0.86255823  0.79523718    -0.74400
O907        O  0.38561801  0.86213806  0.70751308    -0.74400
O908        O  0.33889043  0.86207582  0.79863867    -0.74500
O909        O  0.33984288  0.82152799  0.79973300    -0.74400
O910        O  0.38628847  0.82172715  0.70788293    -0.74400
O911        O  0.38911594  0.82216222  0.79552779    -0.74400
O912        O  0.33662812  0.82114372  0.71176582    -0.74400
Ni913      Ni  0.36212148  0.86350147  0.75295973     1.25400
Ni914      Ni  0.36293132  0.82020202  0.75365341     1.25400
C915        C  0.32766248  0.84116164  0.69727041     0.87800
C916        C  0.39713034  0.84254774  0.80977434     0.87800
C917        C  0.39390010  0.84202418  0.69286135     0.87800
C918        C  0.33227311  0.84178078  0.81481637     0.88000
O919        O  0.52932342  0.82587984  0.55297468    -0.74300
O920        O  0.48070649  0.82312613  0.96122458    -0.74400
O921        O  0.53027367  0.82546850  0.96419025    -0.74400
O922        O  0.47955774  0.82331116  0.54964623    -0.74500
O923        O  0.47740715  0.86367530  0.54942811    -0.74400
O924        O  0.52802732  0.86585580  0.96454572    -0.74400
O925        O  0.47864718  0.86347232  0.96171782    -0.74400
O926        O  0.52682530  0.86622954  0.55299717    -0.74400
Ni927      Ni  0.50509120  0.82322664  0.50743910     1.25400
Ni928      Ni  0.50272219  0.86643827  0.50742732     1.25400
C929        C  0.53611736  0.84653354  0.56804684     0.87800
C930        C  0.47167713  0.84301832  0.94624172     0.87800
C931        C  0.53739913  0.84614490  0.95018276     0.87800
C932        C  0.47002353  0.84307435  0.56345529     0.88000
C933        C  0.74509619  0.14974647  0.97403875     0.80200
C934        C  0.76541484  0.16858340  0.97183580    -0.53700
C935        C  0.78153561  0.16855046  0.50587750     0.09500
C936        C  0.77623480  0.14779978  0.53842366     0.20400
C937        C  0.75817642  0.12526774  0.97803505    -0.54400
C938        C  0.77525587  0.12474128  0.50996959     0.09600
C939        C  0.73340334  0.15328063  0.01858687    -0.53900
C940        C  0.74934121  0.15210271  0.55232399     0.10200
H941        H  0.76702827  0.18123812  0.94503751     0.14700
H942        H  0.78948078  0.14667949  0.56564825     0.00400
H943        H  0.75515850  0.11034636  0.95573426     0.15000
H944        H  0.71380495  0.15539042  0.52384565     0.14800
O945        O  0.62849360  0.13382590  0.80075271    -0.74300
O946        O  0.68040479  0.13359418  0.71812565    -0.74400
O947        O  0.67766727  0.13427366  0.80538659    -0.74400
O948        O  0.63108667  0.13332581  0.71344336    -0.74500
O949        O  0.63078131  0.17376910  0.71226904    -0.74400
O950        O  0.67671236  0.17483147  0.80532837    -0.74400
O951        O  0.68039735  0.17399063  0.71730341    -0.74400
O952        O  0.62764608  0.17422785  0.79986043    -0.74400
Ni953      Ni  0.65445121  0.13235079  0.75941045     1.25400
Ni954      Ni  0.65392761  0.17567718  0.75853391     1.25400
C955        C  0.61961243  0.15392382  0.81446160     0.87800
C956        C  0.68893951  0.15364388  0.70364389     0.87800
C957        C  0.68421896  0.15469689  0.82116693     0.87800
C958        C  0.62314410  0.15337897  0.69776121     0.88000
C959        C  0.27977023  0.12347271  0.55220863     0.86600
C960        C  0.25977502  0.14287657  0.54951226    -0.53700
C961        C  0.24684399  0.14275772  0.51192905     0.09500
C962        C  0.25450908  0.12201935  0.97936167     0.20400
C963        C  0.26603121  0.09956133  0.54413501    -0.54400
C964        C  0.25298545  0.09903542  0.50640294     0.09600
C965        C  0.29530399  0.12713437  0.51162837    -0.53900
C966        C  0.28214910  0.12613054  0.97298819     0.10200
H967        H  0.25660704  0.15622626  0.57469693     0.14700
H968        H  0.24386104  0.12195959  0.94872725     0.00400
H969        H  0.26493673  0.08474126  0.56694244     0.15000
H970        H  0.31498384  0.12969262  0.51272250     0.14800
O971        O  0.35201468  0.11470840  0.80600042    -0.74300
O972        O  0.40124559  0.11923434  0.71782780    -0.74400
O973        O  0.40122926  0.11956329  0.80532082    -0.74400
O974        O  0.35215976  0.11415668  0.71863183    -0.74500
O975        O  0.34792590  0.15442025  0.71759201    -0.74400
O976        O  0.39737095  0.15982874  0.80465485    -0.74400
O977        O  0.39700643  0.15942521  0.71701462    -0.74400
O978        O  0.34824755  0.15499746  0.80554059    -0.74400
Ni979      Ni  0.37679581  0.11549753  0.76200099     1.25400
Ni980      Ni  0.37244707  0.15860480  0.76118225     1.25400
C981        C  0.34221267  0.13417687  0.82070054     0.87800
C982        C  0.40718413  0.14010008  0.70259085     0.87800
C983        C  0.40747651  0.14048644  0.81934586     0.87800
C984        C  0.34218862  0.13335331  0.70334207     0.88000
O985        O  0.53716862  0.17086749  0.96630915    -0.74300
O986        O  0.48817015  0.16751857  0.55450201    -0.74400
O987        O  0.53768785  0.17124879  0.55362201    -0.74400
O988        O  0.48780353  0.16746766  0.96758107    -0.74500
O989        O  0.49070392  0.12712423  0.96671452    -0.74400
O990        O  0.54082612  0.13093760  0.55214981    -0.74400
O991        O  0.49144294  0.12724842  0.55343786    -0.74400
O992        O  0.53986047  0.13054583  0.96520489    -0.74400
Ni993      Ni  0.51263799  0.17133847  0.51034584     1.25400
Ni994      Ni  0.51589361  0.12817391  0.50912182     1.25400
C995        C  0.54647252  0.15135835  0.95077884     0.87800
C996        C  0.48160833  0.14657227  0.56855264     0.87800
C997        C  0.54761606  0.15154045  0.56701611     0.87800
C998        C  0.48108426  0.14685759  0.95273301     0.88000
C999        C  0.13535832  0.72210945  0.53600691     0.86600
C1000       C  0.15615031  0.74056763  0.53432970    -0.53700
C1001       C  0.15573411  0.75534548  0.49914230     0.09500
C1002       C  0.13401807  0.75002165  0.96778297     0.20400
C1003       C  0.11200085  0.73752661  0.53179381    -0.54400
C1004       C  0.11115897  0.75239236  0.49644361     0.09600
C1005       C  0.13667102  0.70833726  0.49301547    -0.53900
C1006       C  0.13657849  0.72262805  0.95729065     0.10200
H1007       H  0.17018467  0.74189128  0.55919681     0.14700
H1008       H  0.13394911  0.76180161  0.93866886     0.00400
H1009       H  0.09732756  0.73757570  0.55490195     0.15000
H1010       H  0.13811160  0.68869397  0.49098097     0.14800
O1011       O  0.13334347  0.60188608  0.70686772    -0.74300
O1012       O  0.12824291  0.65338892  0.79011803    -0.74400
O1013       O  0.12788097  0.65063012  0.70277627    -0.74400
O1014       O  0.13377402  0.60474726  0.79403795    -0.74500
O1015       O  0.17424621  0.60892465  0.79367585    -0.74400
O1016       O  0.16842759  0.65473747  0.70136601    -0.74400
O1017       O  0.16867795  0.65770159  0.78956676    -0.74400
O1018       O  0.17378988  0.60603089  0.70606217    -0.74400
Ni1019     Ni  0.12940157  0.62753553  0.74845130     1.25400
Ni1020     Ni  0.17274434  0.63206267  0.74765112     1.25400
C1021       C  0.15432994  0.59542019  0.69255196     0.87800
C1022       C  0.14763560  0.66376411  0.80434608     0.87800
C1023       C  0.14716178  0.65996461  0.68661210     0.87800
C1024       C  0.15490457  0.59924246  0.80904565     0.88000
C1025       C  0.16508471  0.26001407  0.95607757     0.86600
C1026       C  0.18449347  0.23992940  0.95812241    -0.53700
C1027       C  0.18227864  0.22507647  0.49331213     0.09500
C1028       C  0.16035637  0.23103857  0.52302379     0.20400
C1029       C  0.14109195  0.24569836  0.95713041    -0.54400
C1030       C  0.13813111  0.23019305  0.49204182     0.09600
C1031       C  0.16648685  0.27305314  0.99952197    -0.53900
C1032       C  0.16345655  0.25817658  0.53459541     0.10200
H1033       H  0.19686874  0.23609540  0.93184276     0.14700
H1034       H  0.15873259  0.21896273  0.55159232     0.00400
H1035       H  0.12738210  0.24680357  0.93170119     0.15000
H1036       H  0.16746520  0.29259587  0.50243544     0.14800
O1037       O  0.14444313  0.37853430  0.78323161    -0.74300
O1038       O  0.14456088  0.32600724  0.70177927    -0.74400
O1039       O  0.14523126  0.32981681  0.78930648    -0.74400
O1040       O  0.14380500  0.37489699  0.69627786    -0.74500
O1041       O  0.18452039  0.37531823  0.69527008    -0.74400
O1042       O  0.18593587  0.33029300  0.78906204    -0.74400
O1043       O  0.18522294  0.32631616  0.70125225    -0.74400
O1044       O  0.18510420  0.37921915  0.78257180    -0.74400
Ni1045     Ni  0.14309084  0.35222610  0.74262955     1.25400
Ni1046     Ni  0.18666651  0.35274176  0.74198072     1.25400
C1047       C  0.16470995  0.38753672  0.79661157     0.87800
C1048       C  0.16486279  0.31774541  0.68730890     0.87800
C1049       C  0.16574373  0.32319825  0.80548209     0.87800
C1050       C  0.16388760  0.38274176  0.68067250     0.88000
O1051       O  0.18259162  0.46897331  0.94792488    -0.74300
O1052       O  0.18047804  0.51479768  0.54213014    -0.74400
O1053       O  0.18230360  0.46561202  0.53550089    -0.74400
O1054       O  0.18084255  0.51800233  0.95461962    -0.74500
O1055       O  0.14018724  0.51640847  0.95515722    -0.74400
O1056       O  0.14159541  0.46431252  0.53585324    -0.74400
O1057       O  0.13983851  0.51312777  0.54268698    -0.74400
O1058       O  0.14195440  0.46762871  0.94821542    -0.74400
Ni1059     Ni  0.18252117  0.49191003  0.49514480     1.25400
Ni1060     Ni  0.13897213  0.49031114  0.49574600     1.25400
C1061       C  0.16244407  0.46075656  0.93239692     0.87800
C1062       C  0.15992660  0.52165615  0.55783168     0.87800
C1063       C  0.16230061  0.45639991  0.54909199     0.87800
C1064       C  0.16003394  0.52573482  0.94131739     0.88000
O1065       O  0.17416504  0.01214474  0.96240816    -0.74300
O1066       O  0.12220144  0.96652471  0.96966249    -0.74400
O1067       O  0.12517283  0.01548099  0.96584465    -0.74400
O1068       O  0.17108290  0.96264065  0.96772455    -0.74500
O1069       O  0.17311886  0.96439314  0.53959004    -0.74400
O1070       O  0.12732547  0.01708570  0.53766152    -0.74400
O1071       O  0.12395437  0.96788879  0.54099896    -0.74400
O1072       O  0.17666503  0.01381642  0.53496878    -0.74400
Ni1073     Ni  0.14817288  0.98913584  0.96390107     1.25400
Ni1074     Ni  0.15037798  0.99089276  0.54090271     1.25400
C1075       C  0.18384686  0.02118217  0.49781193     0.87800
C1076       C  0.11504144  0.95944510  0.50568427     0.87800
C1077       C  0.11887160  0.02497381  0.50159172     0.87800
C1078       C  0.17954364  0.95445459  0.50406795     0.88000
O1079       O  0.99379096  0.16353103  0.95725911    -0.74300
O1080       O  0.04041663  0.11202312  0.96426013    -0.74400
O1081       O  0.99097198  0.11497112  0.96383105    -0.74400
O1082       O  0.04375500  0.16075839  0.95937049    -0.74500
O1083       O  0.04374766  0.16214359  0.53252006    -0.74400
O1084       O  0.99097736  0.11690162  0.53670717    -0.74400
O1085       O  0.04047618  0.11327312  0.53687778    -0.74400
O1086       O  0.99405173  0.16581549  0.53092800    -0.74400
Ni1087     Ni  0.01726305  0.13780069  0.95864008     1.25400
Ni1088     Ni  0.01730485  0.13967084  0.53683232     1.25400
C1089       C  0.98574747  0.17244580  0.49388153     0.87800
C1090       C  0.04811511  0.10371701  0.50163135     0.87800
C1091       C  0.98209134  0.10830105  0.50161789     0.87800
C1092       C  0.05292257  0.16808874  0.49608868     0.88000
O1093       O  0.97620298  0.83494892  0.53944207    -0.74300
O1094       O  0.02995773  0.87914538  0.53936134    -0.74400
O1095       O  0.98072915  0.88395260  0.54177938    -0.74400
O1096       O  0.02577268  0.83013487  0.53546373    -0.74500
O1097       O  0.02438122  0.83203418  0.96405291    -0.74400
O1098       O  0.97924204  0.88463586  0.97074858    -0.74400
O1099       O  0.02824243  0.88063874  0.96860324    -0.74400
O1100       O  0.97470152  0.83593138  0.96796174    -0.74400
Ni1101     Ni  0.00322006  0.85690782  0.54161607     1.25400
Ni1102     Ni  0.00157060  0.85827505  0.96533691     1.25400
C1103       C  0.96624248  0.82876026  0.50365737     0.87800
C1104       C  0.03790352  0.88765600  0.50360157     0.87800
C1105       C  0.97277653  0.89354117  0.50653744     0.87800
C1106       C  0.03302136  0.82300674  0.49818470     0.88000
O1107       O  0.84599514  0.98239107  0.96818598    -0.74300
O1108       O  0.89583353  0.03058222  0.97220976    -0.74400
O1109       O  0.89525675  0.98149409  0.97038901    -0.74400
O1110       O  0.84675889  0.03196205  0.97183395    -0.74500
O1111       O  0.84625641  0.03109972  0.54296470    -0.74400
O1112       O  0.89384877  0.98014590  0.54131980    -0.74400
O1113       O  0.89558479  0.02934160  0.54363125    -0.74400
O1114       O  0.84423933  0.98166408  0.53909911    -0.74400
Ni1115     Ni  0.87090772  0.00663544  0.96813795     1.25400
Ni1116     Ni  0.86990279  0.00545943  0.54434101     1.25400
C1117       C  0.83693224  0.97386949  0.50216878     0.87800
C1118       C  0.90374382  0.03804427  0.50803002     0.87800
C1119       C  0.90249985  0.97263289  0.50537583     0.87800
C1120       C  0.83898284  0.04059163  0.50739046     0.88000
C1121       C  0.92847510  0.94224602  0.54496823    -0.21200
C1122       C  0.92132499  0.95314514  0.50568374    -0.09300
C1123       C  0.93217030  0.94498106  0.46721673     0.29600
C1124       C  0.94900739  0.92588779  0.46811363    -0.21200
C1125       C  0.95564256  0.91450340  0.50722270    -0.09300
C1126       C  0.94546686  0.92321077  0.54587595     0.29600
F1127       F  0.95155530  0.91317857  0.58453959    -0.19800
H1128       H  0.92069508  0.94826072  0.57521569     0.18000
H1129       H  0.95676433  0.91992848  0.43780805     0.18000
F1130       F  0.92652871  0.95527815  0.42855016    -0.19800
C1131       C  0.92839485  0.06937849  0.96913893    -0.21200
C1132       C  0.92312784  0.05677792  0.50783340    -0.09300
C1133       C  0.93678815  0.06245003  0.54509158     0.29600
C1134       C  0.95576266  0.07940385  0.54292785    -0.21200
C1135       C  0.96147258  0.09100901  0.50373091    -0.09300
C1136       C  0.94713367  0.08645317  0.96666974     0.29600
F1137       F  0.95070354  0.09826272  0.92870066    -0.19800
H1138       H  0.91758530  0.06593475  0.94039627     0.18000
H1139       H  0.96627680  0.08313341  0.57189346     0.18000
F1140       F  0.93227992  0.05128707  0.58333948    -0.19800
C1141       C  0.07396351  0.07377265  0.96286379    -0.21200
C1142       C  0.06628045  0.08362390  0.50239119    -0.09300
C1143       C  0.07656823  0.07491106  0.54122957     0.29600
C1144       C  0.09363592  0.05594055  0.54063489    -0.21200
C1145       C  0.10089306  0.04523401  0.50146638    -0.09300
C1146       C  0.09086088  0.05473639  0.96239878     0.29600
F1147       F  0.09732421  0.04522006  0.92368241    -0.19800
H1148       H  0.06667792  0.08012648  0.93226789     0.18000
H1149       H  0.10117878  0.04963628  0.57106776     0.18000
F1150       F  0.07028641  0.08467370  0.57983862    -0.19800
C1151       C  0.08684433  0.93065766  0.96790886    -0.21200
C1152       C  0.09531587  0.94106995  0.50616629    -0.09300
C1153       C  0.08614697  0.93134756  0.54488882     0.29600
C1154       C  0.06769169  0.91381304  0.54376769    -0.21200
C1155       C  0.05800069  0.90562690  0.50418085    -0.09300
C1156       C  0.06867797  0.91300863  0.96695089     0.29600
F1157       F  0.06210567  0.90353816  0.92815217    -0.19800
H1158       H  0.09492126  0.93611625  0.93755216     0.18000
H1159       H  0.06089705  0.90674788  0.57407268     0.18000
F1160       F  0.09493008  0.93865701  0.58382336    -0.19800
C1161       C  0.14200767  0.41464924  0.84772777    -0.21200
C1162       C  0.16432995  0.40738250  0.82942067    -0.09300
C1163       C  0.18593236  0.41874793  0.84394036     0.29600
C1164       C  0.18513070  0.43621539  0.87686750    -0.21200
C1165       C  0.16285322  0.44294955  0.89603822    -0.09300
C1166       C  0.14118416  0.43215732  0.88044265     0.29600
F1167       F  0.11909677  0.43810861  0.89716897    -0.19800
H1168       H  0.12501200  0.40646520  0.83722623     0.18000
H1169       H  0.20210565  0.44434485  0.88760121     0.18000
F1170       F  0.20792450  0.41295152  0.82667288    -0.19800
C1171       C  0.18414747  0.40509525  0.62086006    -0.21200
C1172       C  0.16322288  0.40087101  0.64581800    -0.09300
C1173       C  0.14195186  0.41456914  0.63784449     0.29600
C1174       C  0.14181186  0.43226203  0.60578858    -0.21200
C1175       C  0.16281515  0.43678230  0.58127667    -0.09300
C1176       C  0.18400530  0.42289073  0.58876344     0.29600
F1177       F  0.20448450  0.42630989  0.56497792    -0.19800
H1178       H  0.20066939  0.39462396  0.62619334     0.18000
H1179       H  0.12532218  0.44285243  0.60088723     0.18000
F1180       F  0.12149538  0.41153503  0.66187802    -0.19800
C1181       C  0.10969178  0.20077995  0.45735202    -0.21200
C1182       C  0.11738305  0.21299242  0.49485567    -0.09300
C1183       C  0.10451931  0.21016067  0.03235952     0.29600
C1184       C  0.08332982  0.19587973  0.03226329    -0.21200
C1185       C  0.07494017  0.18378084  0.49528532    -0.09300
C1186       C  0.08875262  0.18640031  0.45736866     0.29600
F1187       F  0.08229233  0.17491389  0.42027918    -0.19800
H1188       H  0.11991807  0.20250658  0.42763775     0.18000
H1189       H  0.07335149  0.19380135  0.06215074     0.18000
F1190       F  0.11154524  0.22134931  0.06937748    -0.19800
C1191       C  0.18782985  0.29671408  0.85822891    -0.21200
C1192       C  0.16602275  0.30771692  0.84430872    -0.09300
C1193       C  0.14484548  0.30491021  0.86929130     0.29600
C1194       C  0.14530695  0.29038754  0.90602513    -0.21200
C1195       C  0.16649750  0.27747861  0.91802758    -0.09300
C1196       C  0.18827471  0.28205099  0.89504866     0.29600
F1197       F  0.21025260  0.27356023  0.90881189    -0.19800
H1198       H  0.20468127  0.29957278  0.84075462     0.18000
H1199       H  0.12874788  0.28895754  0.92483846     0.18000
F1200       F  0.12368530  0.31647445  0.85884538    -0.19800
C1201       C  0.14222847  0.29217452  0.63321679    -0.21200
C1202       C  0.16457096  0.29892989  0.65256689    -0.09300
C1203       C  0.18637340  0.28909874  0.63565318     0.29600
C1204       C  0.18573698  0.27411860  0.59902734    -0.21200
C1205       C  0.16348978  0.26851867  0.57872835    -0.09300
C1206       C  0.14168843  0.27732412  0.59651870     0.29600
F1207       F  0.11998842  0.27297078  0.57659157    -0.19800
H1208       H  0.12512413  0.29939003  0.64511934     0.18000
H1209       H  0.20275522  0.26788658  0.58512685     0.18000
F1210       F  0.20842457  0.29478479  0.65311543    -0.19800
C1211       C  0.17800515  0.57179827  0.63702152    -0.21200
C1212       C  0.15605767  0.57572551  0.65951780    -0.09300
C1213       C  0.13577108  0.56102961  0.64920316     0.29600
C1214       C  0.13735037  0.54342883  0.61667830    -0.21200
C1215       C  0.15913254  0.53981311  0.59360029    -0.09300
C1216       C  0.17959233  0.55412938  0.60449526     0.29600
F1217       F  0.20098939  0.55162772  0.58297131    -0.19800
H1218       H  0.19394209  0.58276460  0.64401133     0.18000
H1219       H  0.12134157  0.53260004  0.60949941     0.18000
F1220       F  0.11430722  0.56352397  0.67052731    -0.19800
C1221       C  0.18012307  0.55725860  0.89571182    -0.21200
C1222       C  0.15874925  0.54535791  0.90899392    -0.09300
C1223       C  0.13622865  0.55194687  0.89013827     0.29600
C1224       C  0.13529710  0.56966221  0.85821094    -0.21200
C1225       C  0.15665405  0.58125717  0.84422425    -0.09300
C1226       C  0.17915988  0.57510201  0.86365344     0.29600
F1227       F  0.20024271  0.58611466  0.85168955    -0.19800
H1228       H  0.19766732  0.55264733  0.90989326     0.18000
H1229       H  0.11769549  0.57402759  0.84400920     0.18000
F1230       F  0.11502539  0.54100430  0.90167580    -0.19800
C1231       C  0.06675435  0.76318576  0.50454261    -0.21200
C1232       C  0.09035720  0.76975247  0.49043999    -0.09300
C1233       C  0.09414787  0.79344093  0.97727426     0.29600
C1234       C  0.07522612  0.81056010  0.97953426    -0.21200
C1235       C  0.05224834  0.80441233  0.49468437    -0.09300
C1236       C  0.04800855  0.78039951  0.50733177     0.29600
F1237       F  0.02577002  0.77360916  0.52231380    -0.19800
H1238       H  0.06291024  0.74474983  0.51457702     0.18000
H1239       H  0.07884234  0.82922798  0.97053324     0.18000
F1240       F  0.11663439  0.80097951  0.96503818    -0.19800
C1241       C  0.16181710  0.67606300  0.61641027    -0.21200
C1242       C  0.14464387  0.67650535  0.64974730    -0.09300
C1243       C  0.12438870  0.69197395  0.64657706     0.29600
C1244       C  0.12108800  0.70648264  0.61017453    -0.21200
C1245       C  0.13785284  0.70579468  0.57568344    -0.09300
C1246       C  0.15850112  0.69048355  0.57971668     0.29600
F1247       F  0.17559471  0.68953012  0.54812838    -0.19800
H1248       H  0.17756462  0.66414656  0.61835590     0.18000
H1249       H  0.10548832  0.71836733  0.61054046     0.18000
F1250       F  0.10800678  0.69352782  0.67927175    -0.19800
C1251       C  0.16306211  0.70300976  0.90211581    -0.21200
C1252       C  0.14001118  0.71204196  0.91363427    -0.09300
C1253       C  0.11987348  0.70698523  0.88689148     0.29600
C1254       C  0.12264675  0.69216120  0.85033030    -0.21200
C1255       C  0.14559047  0.68218753  0.83959746    -0.09300
C1256       C  0.16596307  0.68844855  0.86536931     0.29600
F1257       F  0.18846644  0.67930343  0.85682004    -0.19800
H1258       H  0.17870933  0.70636318  0.92281880     0.18000
H1259       H  0.10661755  0.68781681  0.83121353     0.18000
F1260       F  0.09727917  0.71511477  0.89762337    -0.19800
C1261       C  0.43824574  0.12090862  0.65358310    -0.21200
C1262       C  0.42602154  0.14187177  0.66792633    -0.09300
C1263       C  0.43206171  0.16431620  0.64869461     0.29600
C1264       C  0.45002642  0.16562729  0.61663688    -0.21200
C1265       C  0.46241236  0.14470171  0.60257818    -0.09300
C1266       C  0.45613411  0.12220417  0.62137990     0.29600
F1267       F  0.46732857  0.10134797  0.60903103    -0.19800
H1268       H  0.43404090  0.10334710  0.66743536     0.18000
H1269       H  0.45418662  0.18317918  0.60270461     0.18000
F1270       F  0.42060888  0.18511979  0.66057283    -0.19800
C1271       C  0.43063507  0.16438574  0.87427970    -0.21200
C1272       C  0.42649784  0.14222860  0.85309598    -0.09300
C1273       C  0.44053512  0.12179122  0.86486229     0.29600
C1274       C  0.45811193  0.12355335  0.89732212    -0.21200
C1275       C  0.46219830  0.14563512  0.91868739    -0.09300
C1276       C  0.44829568  0.16615067  0.90680345     0.29600
F1277       F  0.45145527  0.18783799  0.92681757    -0.19800
H1278       H  0.42003427  0.18037005  0.86598041     0.18000
H1279       H  0.46868021  0.10752478  0.90548176     0.18000
F1280       F  0.43757202  0.10007718  0.84484093    -0.19800
C1281       C  0.22603166  0.03501802  0.00656648    -0.21200
C1282       C  0.20217041  0.04048147  0.49497019    -0.09300
C1283       C  0.19525126  0.06403882  0.48232701     0.29600
C1284       C  0.21232682  0.08292759  0.48323811    -0.21200
C1285       C  0.23648959  0.07842891  0.49642335    -0.09300
C1286       C  0.24330363  0.05364296  0.00689010     0.29600
F1287       F  0.26661939  0.04831310  0.01878492    -0.19800
H1288       H  0.23137214  0.01690823  0.01662702     0.18000
H1289       H  0.20632744  0.10124567  0.47599736     0.18000
F1290       F  0.17169536  0.06898129  0.47140856    -0.19800
C1291       C  0.23825346  0.18348153  0.98537272    -0.21200
C1292       C  0.22928609  0.16236011  0.50264325    -0.09300
C1293       C  0.20519290  0.16121684  0.51782305     0.29600
C1294       C  0.18995763  0.18167391  0.51513542    -0.21200
C1295       C  0.19878066  0.20367453  0.49821181    -0.09300
C1296       C  0.22355942  0.20417908  0.98376947     0.29600
F1297       F  0.23375348  0.22524562  0.96998535    -0.19800
H1298       H  0.25715947  0.18471096  0.97535004     0.18000
H1299       H  0.17126191  0.18022179  0.52607222     0.18000
F1300       F  0.19667677  0.14053788  0.53624011    -0.19800
C1301       C  0.29816990  0.10632972  0.62259941    -0.21200
C1302       C  0.29490285  0.12572735  0.59336618    -0.09300
C1303       C  0.30660192  0.14799655  0.60236962     0.29600
C1304       C  0.32107569  0.15064457  0.63917568    -0.21200
C1305       C  0.32464275  0.13109698  0.66749868    -0.09300
C1306       C  0.31284237  0.10895751  0.65917583     0.29600
F1307       F  0.31559334  0.08967511  0.68618642    -0.19800
H1308       H  0.29009588  0.08875940  0.61757864     0.18000
H1309       H  0.33021464  0.16780438  0.64464817     0.18000
F1310       F  0.30442048  0.16717375  0.57497067    -0.19800
C1311       C  0.29516359  0.11036389  0.90081598    -0.21200
C1312       C  0.29438396  0.12943210  0.93075797    -0.09300
C1313       C  0.30793383  0.15057963  0.92265452     0.29600
C1314       C  0.32252802  0.15233856  0.88580941    -0.21200
C1315       C  0.32443056  0.13281204  0.85681653    -0.09300
C1316       C  0.31025103  0.11187050  0.86432516     0.29600
F1317       F  0.31119332  0.09275652  0.83677494    -0.19800
H1318       H  0.28498469  0.09385428  0.90678767     0.18000
H1319       H  0.33321667  0.16864269  0.88098597     0.18000
F1320       F  0.30756300  0.16929535  0.95112739    -0.19800
C1321       C  0.59267799  0.17509070  0.86856882    -0.21200
C1322       C  0.60022879  0.15351058  0.84824682    -0.09300
C1323       C  0.58962481  0.13145289  0.86171832     0.29600
C1324       C  0.57232178  0.13107712  0.89481317    -0.21200
C1325       C  0.56492122  0.15256193  0.91547940    -0.09300
C1326       C  0.57526222  0.17470178  0.90175063     0.29600
F1327       F  0.56889952  0.19598511  0.92068448    -0.19800
H1328       H  0.60050256  0.19234564  0.85918709     0.18000
H1329       H  0.56464944  0.11375261  0.90419390     0.18000
F1330       F  0.59586714  0.11006756  0.84301099    -0.19800
C1331       C  0.59134196  0.17424899  0.65325462    -0.21200
C1332       C  0.60455364  0.15303691  0.66307878    -0.09300
C1333       C  0.59925629  0.13156188  0.64036695     0.29600
C1334       C  0.58078465  0.13132388  0.60919990    -0.21200
C1335       C  0.56727538  0.15242160  0.59984143    -0.09300
C1336       C  0.57286147  0.17402056  0.62203566     0.29600
F1337       F  0.56024674  0.19484369  0.61433729    -0.19800
H1338       H  0.59498986  0.19101476  0.67032828     0.18000
H1339       H  0.57711438  0.11451221  0.59228995     0.18000
F1340       F  0.61197520  0.11078116  0.64790965    -0.19800
C1341       C  0.81195958  0.06986125  0.54759935    -0.21200
C1342       C  0.82272833  0.06225294  0.50852591    -0.09300
C1343       C  0.81897141  0.07599041  0.97176574     0.29600
C1344       C  0.80406157  0.09649987  0.97327478    -0.21200
C1345       C  0.79286341  0.10424086  0.51138290    -0.09300
C1346       C  0.79715287  0.09070701  0.54907383     0.29600
F1347       F  0.78630352  0.09703462  0.58673571    -0.19800
H1348       H  0.81479858  0.05953789  0.57700742     0.18000
H1349       H  0.80117864  0.10685750  0.94388421     0.18000
F1350       F  0.82960596  0.07015328  0.93364653    -0.19800
C1351       C  0.70539508  0.16212059  0.93572590    -0.21200
C1352       C  0.72878845  0.15142421  0.93429609    -0.09300
C1353       C  0.73798467  0.14393083  0.89378706     0.29600
C1354       C  0.72332524  0.14496835  0.85697694    -0.21200
C1355       C  0.69991399  0.15487737  0.85920459    -0.09300
C1356       C  0.69114540  0.16398133  0.89838665     0.29600
F1357       F  0.66854712  0.17411771  0.90069229    -0.19800
H1358       H  0.69809017  0.16964733  0.96510693     0.18000
H1359       H  0.73035966  0.13833794  0.82653242     0.18000
F1360       F  0.76124089  0.13565062  0.88962494    -0.19800
C1361       C  0.73186927  0.13072987  0.61574202    -0.21200
C1362       C  0.73990289  0.15248319  0.59714681    -0.09300
C1363       C  0.73309908  0.17457360  0.61630191     0.29600
C1364       C  0.71757268  0.17485871  0.65229349    -0.21200
C1365       C  0.70824376  0.15310287  0.66956165    -0.09300
C1366       C  0.71627630  0.13091163  0.65152989     0.29600
F1367       F  0.70797320  0.10930992  0.66661617    -0.19800
H1368       H  0.73634832  0.11355913  0.60066769     0.18000
H1369       H  0.71193850  0.19220873  0.66532357     0.18000
F1370       F  0.74017142  0.19592323  0.59837903    -0.19800
C1371       C  0.44053166  0.86416091  0.89909861    -0.21200
C1372       C  0.45292529  0.84265643  0.91072367    -0.09300
C1373       C  0.44713614  0.82123851  0.88795445     0.29600
C1374       C  0.42923433  0.82141370  0.85519135    -0.21200
C1375       C  0.41668718  0.84288714  0.84388351    -0.09300
C1376       C  0.42271741  0.86436030  0.86628740     0.29600
F1377       F  0.41112261  0.88558915  0.85723109    -0.19800
H1378       H  0.44444620  0.88098919  0.91577392     0.18000
H1379       H  0.42522927  0.80459842  0.83854401     0.18000
F1380       F  0.45887587  0.80008208  0.89691806    -0.19800
C1381       C  0.43936205  0.86416942  0.60951832    -0.21200
C1382       C  0.45023738  0.84235806  0.59597717    -0.09300
C1383       C  0.44201068  0.82033568  0.61396351     0.29600
C1384       C  0.42349215  0.82036112  0.64493420    -0.21200
C1385       C  0.41280685  0.84223937  0.65873841    -0.09300
C1386       C  0.42091477  0.86420398  0.64043626     0.29600
F1387       F  0.41118596  0.88585060  0.65236971    -0.19800
H1388       H  0.44517953  0.88141279  0.59626406     0.18000
H1389       H  0.41771127  0.80316847  0.65845126     0.18000
F1390       F  0.45191962  0.79875377  0.60211533    -0.19800
C1391       C  0.19754081  0.91871103  0.96639240    -0.21200
C1392       C  0.19496629  0.93216391  0.50476610    -0.09300
C1393       C  0.20505954  0.92263539  0.54341729     0.29600
C1394       C  0.21915475  0.90127753  0.54275443    -0.21200
C1395       C  0.22343414  0.88915492  0.50374984    -0.09300
C1396       C  0.21148500  0.89748536  0.96592160     0.29600
F1397       F  0.21397650  0.88541988  0.92797788    -0.19800
H1398       H  0.18940503  0.92491598  0.93636666     0.18000
H1399       H  0.22734570  0.89464059  0.57244468     0.18000
F1400       F  0.20167017  0.93404137  0.58174359    -0.19800
C1401       C  0.21816090  0.78279901  0.48594328    -0.21200
C1402       C  0.21428369  0.80708529  0.49839322    -0.09300
C1403       C  0.19036006  0.81458807  0.50835735     0.29600
C1404       C  0.17092534  0.79798625  0.50623132    -0.21200
C1405       C  0.17500118  0.77384289  0.49360853    -0.09300
C1406       C  0.19879853  0.76637332  0.48360429     0.29600
F1407       F  0.20340135  0.74292079  0.47285658    -0.19800
H1408       H  0.23637175  0.77637823  0.47848179     0.18000
H1409       H  0.15282668  0.80378981  0.51571086     0.18000
F1410       F  0.18563981  0.83796435  0.51930097    -0.19800
C1411       C  0.31329758  0.83983881  0.93087253    -0.21200
C1412       C  0.28770280  0.84237255  0.92771597    -0.09300
C1413       C  0.27708144  0.84472536  0.88609017     0.29600
C1414       C  0.29161488  0.84448189  0.84919507    -0.21200
C1415       C  0.31688289  0.84178852  0.85304321    -0.09300
C1416       C  0.32770285  0.83956052  0.89388461     0.29600
F1417       F  0.35234109  0.83745629  0.89796310    -0.19800
H1418       H  0.32266384  0.83820717  0.96138537     0.18000
H1419       H  0.28316624  0.84636750  0.81763038     0.18000
F1420       F  0.25254530  0.84736559  0.88110869    -0.19800
C1421       C  0.28004966  0.86159324  0.61349451    -0.21200
C1422       C  0.27629217  0.84011391  0.59012360    -0.09300
C1423       C  0.28731903  0.81858676  0.60509602     0.29600
C1424       C  0.30283655  0.81883630  0.64132302    -0.21200
C1425       C  0.30812892  0.84065257  0.66309744    -0.09300
C1426       C  0.29578830  0.86195985  0.64957312     0.29600
F1427       F  0.29972932  0.88343120  0.66984713    -0.19800
H1428       H  0.27216769  0.87847563  0.60195632     0.18000
H1429       H  0.31179439  0.80209055  0.65079702     0.18000
F1430       F  0.28441181  0.79759186  0.58275371    -0.19800
C1431       C  0.57529968  0.86971528  0.66176564    -0.21200
C1432       C  0.59234347  0.85082046  0.66754058    -0.09300
C1433       C  0.59047361  0.83026419  0.64055974     0.29600
C1434       C  0.57203038  0.82881353  0.60884552    -0.21200
C1435       C  0.55509710  0.84781697  0.60293883    -0.09300
C1436       C  0.55690334  0.86827225  0.63011049     0.29600
F1437       F  0.54056733  0.88676496  0.62679347    -0.19800
H1438       H  0.57601022  0.88563494  0.68221796     0.18000
H1439       H  0.57129750  0.81294124  0.58827877     0.18000
F1440       F  0.60683624  0.81179592  0.64394223    -0.19800
C1441       C  0.55951054  0.86907902  0.89323675    -0.21200
C1442       C  0.55643096  0.84744337  0.91658593    -0.09300
C1443       C  0.57144426  0.82737770  0.90704032     0.29600
C1444       C  0.58917001  0.82912558  0.87484412    -0.21200
C1445       C  0.59230981  0.85084150  0.85166614    -0.09300
C1446       C  0.57714197  0.87081865  0.86106659     0.29600
F1447       F  0.57899937  0.89200477  0.83885119    -0.19800
H1448       H  0.54804159  0.88471656  0.89952963     0.18000
H1449       H  0.60065646  0.81351814  0.86844001     0.18000
F1450       F  0.56938603  0.80621291  0.92924830    -0.19800
C1451       C  0.79522657  0.95910699  0.01706549    -0.21200
C1452       C  0.81845284  0.95453258  0.49983681    -0.09300
C1453       C  0.82399062  0.93193776  0.48116619     0.29600
C1454       C  0.80687421  0.91301209  0.48218546    -0.21200
C1455       C  0.78382535  0.91656320  0.50098143    -0.09300
C1456       C  0.77763536  0.94074729  0.01642518     0.29600
F1457       F  0.75480541  0.94608384  0.03053802    -0.19800
H1458       H  0.79051558  0.97678812  0.02988618     0.18000
H1459       H  0.81210439  0.89534716  0.47009034     0.18000
F1460       F  0.84639486  0.92781130  0.46401625    -0.19800
C1461       C  0.72007797  0.88752173  0.62138183    -0.21200
C1462       C  0.72471107  0.86772594  0.59372536    -0.09300
C1463       C  0.71370237  0.84522258  0.60355867     0.29600
C1464       C  0.69907100  0.84261353  0.64010512    -0.21200
C1465       C  0.69446276  0.86245798  0.66721123    -0.09300
C1466       C  0.70528331  0.88493664  0.65762419     0.29600
F1467       F  0.70137632  0.90466311  0.68293854    -0.19800
H1468       H  0.72693934  0.90546370  0.61500178     0.18000
H1469       H  0.69063623  0.82518688  0.64631350     0.18000
F1470       F  0.71668521  0.82575225  0.57725716    -0.19800
C1471       C  0.71567381  0.84341723  0.92030502    -0.21200
C1472       C  0.72544511  0.86603567  0.93190705    -0.09300
C1473       C  0.72036079  0.88626253  0.90567551     0.29600
C1474       C  0.70509137  0.88398060  0.86921560    -0.21200
C1475       C  0.69473944  0.86141319  0.85792916    -0.09300
C1476       C  0.70068914  0.84099411  0.88362194     0.29600
F1477       F  0.69109494  0.81884421  0.87472029    -0.19800
H1478       H  0.71907234  0.82770053  0.94055761     0.18000
H1479       H  0.70095469  0.90003399  0.85030833     0.18000
F1480       F  0.72908858  0.90847367  0.91665062    -0.19800
C1481       C  0.84582715  0.42648086  0.64898642    -0.21200
C1482       C  0.86852287  0.41742286  0.66355488    -0.09300
C1483       C  0.88995495  0.42707784  0.64529862     0.29600
C1484       C  0.88857841  0.44478012  0.61279932    -0.21200
C1485       C  0.86590080  0.45345473  0.59754278    -0.09300
C1486       C  0.84445177  0.44427680  0.61657071     0.29600
F1487       F  0.82207279  0.45235233  0.60393444    -0.19800
H1488       H  0.82896249  0.41967271  0.66252214     0.18000
H1489       H  0.90545573  0.45150678  0.59919386     0.18000
F1490       F  0.91235435  0.41922917  0.65821336    -0.19800
C1491       C  0.84553341  0.42287449  0.85912361    -0.21200
C1492       C  0.86796431  0.41229913  0.84794503    -0.09300
C1493       C  0.88937173  0.41986055  0.86954690     0.29600
C1494       C  0.88822318  0.43786520  0.90107784    -0.21200
C1495       C  0.86582777  0.44868416  0.91182206    -0.09300
C1496       C  0.84438924  0.44088567  0.89063205     0.29600
F1497       F  0.82231701  0.45094120  0.89950063    -0.19800
H1498       H  0.82880153  0.41749615  0.84296428     0.18000
H1499       H  0.90498159  0.44338469  0.91700174     0.18000
F1500       F  0.91148354  0.40996498  0.86037127    -0.19800
C1501       C  0.97017759  0.21428879  0.50577505    -0.21200
C1502       C  0.96610029  0.19064334  0.49123164    -0.09300
C1503       C  0.94298627  0.18500767  0.97268705     0.29600
C1504       C  0.92371998  0.20180994  0.97354761    -0.21200
C1505       C  0.92742038  0.22464895  0.49191130    -0.09300
C1506       C  0.95124170  0.23134381  0.50524024     0.29600
F1507       F  0.95632389  0.25438011  0.51790148    -0.19800
H1508       H  0.98809307  0.21956049  0.51745761     0.18000
H1509       H  0.90570128  0.19600589  0.96341478     0.18000
F1510       F  0.93869188  0.16214948  0.95820478    -0.19800
C1511       C  0.81866374  0.22595144  0.49255391    -0.21200
C1512       C  0.84252471  0.21764863  0.49976906    -0.09300
C1513       C  0.84654613  0.19251468  0.01268377     0.29600
C1514       C  0.82657155  0.17657092  0.01556371    -0.21200
C1515       C  0.80249039  0.18566284  0.50734026    -0.09300
C1516       C  0.79884174  0.21028525  0.49654089     0.29600
F1517       F  0.77597225  0.21941787  0.49093350    -0.19800
H1518       H  0.81533591  0.24494945  0.48539556     0.18000
H1519       H  0.82969591  0.15779167  0.02449447     0.18000
F1520       F  0.86922490  0.18450331  0.02356364    -0.19800
C1521       C  0.85477216  0.31184739  0.62711123    -0.21200
C1522       C  0.87529909  0.31682005  0.65292380    -0.09300
C1523       C  0.89815867  0.30744853  0.64062053     0.29600
C1524       C  0.90026522  0.29305850  0.60398608    -0.21200
C1525       C  0.87964136  0.28713612  0.57882153    -0.09300
C1526       C  0.85692645  0.29753280  0.59010039     0.29600
F1527       F  0.83671690  0.29382421  0.56535617    -0.19800
H1528       H  0.83707810  0.31940647  0.63508300     0.18000
H1529       H  0.91842166  0.28728107  0.59545237     0.18000
F1530       F  0.91874576  0.31222122  0.66373718    -0.19800
C1531       C  0.89249101  0.29604002  0.85239677    -0.21200
C1532       C  0.87183029  0.31072437  0.84441899    -0.09300
C1533       C  0.85187741  0.30901235  0.87291229     0.29600
C1534       C  0.85326454  0.29420165  0.90965575    -0.21200
C1535       C  0.87424992  0.28034287  0.91852243    -0.09300
C1536       C  0.89360322  0.28076168  0.88885615     0.29600
F1537       F  0.91423987  0.26774439  0.89671866    -0.19800
H1538       H  0.90805862  0.29686685  0.83099429     0.18000
H1539       H  0.83826081  0.29432102  0.93235715     0.18000
F1540       F  0.83162823  0.32293701  0.86706644    -0.19800
C1541       C  0.88241666  0.57880536  0.85031878    -0.21200
C1542       C  0.85981461  0.58784427  0.83547709    -0.09300
C1543       C  0.83825675  0.57809581  0.85327594     0.29600
C1544       C  0.83943289  0.56029911  0.88557150    -0.21200
C1545       C  0.86200918  0.55163043  0.90110744    -0.09300
C1546       C  0.88358685  0.56092037  0.88258853     0.29600
F1547       F  0.90590939  0.55292322  0.89567749    -0.19800
H1548       H  0.89933687  0.58571971  0.83717285     0.18000
H1549       H  0.82248711  0.55349951  0.89880077     0.18000
F1550       F  0.81589115  0.58589809  0.84005980    -0.19800
C1551       C  0.83817736  0.57970983  0.64054561    -0.21200
C1552       C  0.85930765  0.59281586  0.65138516    -0.09300
C1553       C  0.88124283  0.58769133  0.62954278     0.29600
C1554       C  0.88192917  0.56962212  0.59805545    -0.21200
C1555       C  0.86086869  0.55631672  0.58760297    -0.09300
C1556       C  0.83887002  0.56162623  0.60909696     0.29600
F1557       F  0.81809539  0.54902662  0.60064685    -0.19800
H1558       H  0.82108696  0.58314914  0.65694940     0.18000
H1559       H  0.89905472  0.56604386  0.58185752     0.18000
F1560       F  0.90208978  0.60008556  0.63838554    -0.19800
C1561       C  0.78149948  0.81011263  0.99192522    -0.21200
C1562       C  0.79077475  0.83193154  0.50271081    -0.09300
C1563       C  0.81575941  0.83450938  0.51239221     0.29600
C1564       C  0.83138626  0.81425265  0.51085882    -0.21200
C1565       C  0.82222795  0.79126648  0.49964365    -0.09300
C1566       C  0.79674454  0.78980629  0.99063836     0.29600
F1567       F  0.78686495  0.76802059  0.97997842    -0.19800
H1568       H  0.76224354  0.80801435  0.98458749     0.18000
H1569       H  0.85064049  0.81653823  0.51807121     0.18000
F1570       F  0.82481672  0.85636971  0.52466053    -0.19800
C1571       C  0.92976904  0.81088774  0.96644089    -0.21200
C1572       C  0.94423773  0.81306208  0.50386968    -0.09300
C1573       C  0.93692040  0.80019028  0.54111453     0.29600
C1574       C  0.91619779  0.78524925  0.53991922    -0.21200
C1575       C  0.90259186  0.78277944  0.50173089    -0.09300
C1576       C  0.90899455  0.79630779  0.96533810     0.29600
F1577       F  0.89542196  0.79569605  0.92851052    -0.19800
H1578       H  0.93454946  0.82103710  0.93771018     0.18000
H1579       H  0.91132973  0.77504457  0.56837376     0.18000
F1580       F  0.95009060  0.80143122  0.57831712    -0.19800
C1581       C  0.87654410  0.70639508  0.90831572    -0.21200
C1582       C  0.85521647  0.71896533  0.92030835    -0.09300
C1583       C  0.83339498  0.71398483  0.89731316     0.29600
C1584       C  0.83378835  0.69905140  0.86084219    -0.21200
C1585       C  0.85560835  0.68812559  0.84723357    -0.09300
C1586       C  0.87693705  0.69155402  0.87200521     0.29600
F1587       F  0.89816010  0.68011197  0.86199567    -0.19800
H1588       H  0.89318535  0.70802800  0.92712201     0.18000
H1589       H  0.81687013  0.69584729  0.84348145     0.18000
F1590       F  0.81141627  0.72238617  0.91077094    -0.19800
C1591       C  0.83381300  0.70940984  0.58906312    -0.21200
C1592       C  0.85368632  0.72482580  0.58078401    -0.09300
C1593       C  0.87286226  0.72578497  0.61109240     0.29600
C1594       C  0.87274453  0.71057479  0.64760590    -0.21200
C1595       C  0.85333834  0.69435766  0.65489917    -0.09300
C1596       C  0.83348724  0.69445928  0.62568535     0.29600
F1597       F  0.81451536  0.67887392  0.63067997    -0.19800
H1598       H  0.81895125  0.70813923  0.56591936     0.18000
H1599       H  0.88823558  0.71093993  0.66950449     0.18000
F1600       F  0.89259641  0.73996815  0.60380991    -0.19800
loop_ 
_geom_bond_atom_site_label_1 
_geom_bond_atom_site_label_2 
_geom_bond_distance 
_geom_bond_site_symmetry_2 
_ccdc_geom_bond_type 
C1            C2   1.536       .  S
C1            C7   1.525       .  S
C1            C5   1.535       .  S
C1          C782   1.526       .  S
C2            H9   1.084       .  S
C2          C803   1.367       .  D
C3            C4   1.550   1_556  S
C3          C802   1.367       .  D
C3          C765   1.488   1_556  S
C4            C8   1.553       .  S
C4            C6   1.544   1_554  S
C4           H10   1.110       .  S
C5           H11   1.086       .  S
C5          C806   1.363       .  D
C6          C805   1.363       .  D
C6          C775   1.484   1_556  S
C7          H812   1.087       .  S
C7          C808   1.365       .  D
C8          C807   1.364       .  D
C8          C792   1.489       .  S
H12         C807   1.087       .  S
O13         Ni21   1.931       .  S
O13          C23   1.284       .  A
O14         Ni21   1.931       .  S
O14          C24   1.284       .  A
O15         Ni21   1.905       .  S
O15          C25   1.279       .  A
O16         Ni21   1.907       .  S
O16          C26   1.279       .  A
O17         Ni22   1.913       .  S
O17          C26   1.281       .  A
O18         Ni22   1.916       .  S
O18          C25   1.281       .  A
O19         Ni22   1.921       .  S
O19          C24   1.282       .  A
O20         Ni22   1.918       .  S
O20          C23   1.282       .  A
Ni21        Ni22   2.384       .  S
C23         C742   1.493       .  S
C24         C795   1.492       .  S
C25         C785   1.478       .  S
C26         C752   1.476       .  S
C27          C28   1.528       .  S
C27          C33   1.531   1_554  S
C27          C31   1.538       .  S
C27         C725   1.526       .  S
C28          H35   1.087       .  S
C28          C29   1.360       .  D
C29         C830   1.550   1_554  S
C29         C712   1.475       .  S
C30          C34   1.549       .  S
C30         C829   1.550       .  S
C30         C832   1.549       .  S
C30          H36   1.110       .  S
C31          H37   1.081       .  S
C31          C32   1.367   1_554  D
C32         C830   1.549       .  S
C32         C705   1.493       .  S
C33          H38   1.087       .  S
C33         C834   1.364       .  D
C34         C833   1.364       .  D
C34         C735   1.486       .  S
O39         Ni47   1.930       .  S
O39          C49   1.284       .  A
O40         Ni47   1.932       .  S
O40          C50   1.285       .  A
O41         Ni47   1.901       .  S
O41          C51   1.278       .  A
O42         Ni47   1.904       .  S
O42          C52   1.278       .  A
O43         Ni48   1.917       .  S
O43          C52   1.283       .  A
O44         Ni48   1.920       .  S
O44          C51   1.282       .  A
O45         Ni48   1.925       .  S
O45          C50   1.283       .  A
O46         Ni48   1.922       .  S
O46          C49   1.282       .  A
Ni47        Ni48   2.383       .  S
C49         C682   1.494       .  S
C50         C732   1.498       .  S
C51         C722   1.479       .  S
C52         C692   1.478       .  S
O53         Ni61   1.927   1_554  S
O53          C63   1.284       .  A
O54        Ni861   1.926       .  S
O54          C64   1.284       .  A
O55        Ni861   1.906       .  S
O55          C65   1.279       .  A
O56         Ni61   1.905   1_554  S
O56          C66   1.279       .  A
O57         Ni62   1.914   1_554  S
O57          C66   1.282       .  A
O58        Ni862   1.915       .  S
O58          C65   1.282       .  A
O59        Ni862   1.922       .  S
O59          C64   1.282       .  A
O60         Ni62   1.921   1_554  S
O60          C63   1.283       .  A
Ni61        O854   1.926       .  S
Ni61        O855   1.905       .  S
Ni61        Ni62   2.384       .  S
Ni62        O858   1.914       .  S
Ni62        O859   1.921       .  S
C63         C685   1.493       .  S
C64         C745   1.493       .  S
C65         C695   1.478       .  S
C66         C755   1.475       .  S
C67          C68   1.529       .  S
C67          C73   1.536       .  S
C67          C71   1.538       .  S
C67         C662   1.528       .  S
C68          H75   1.087       .  S
C68          C69   1.360       .  D
C69         C870   1.547   1_554  S
C69         C762   1.475       .  S
C70          C74   1.547       .  S
C70         C869   1.548       .  S
C70         C872   1.550       .  S
C70          H76   1.110       .  S
C71          H77   1.081       .  S
C71          C72   1.367       .  D
C72         C870   1.550   1_554  S
C72         C655   1.494       .  S
C73          H78   1.087       .  S
C73         C874   1.364   1_554  D
C74         C873   1.364       .  D
C74         C672   1.487       .  S
O79         Ni87   1.932       .  S
O79          C89   1.284       .  A
O80         Ni87   1.932       .  S
O80          C90   1.285       .  A
O81         Ni87   1.904       .  S
O81          C91   1.279       .  A
O82         Ni87   1.905       .  S
O82          C92   1.279       .  A
O83         Ni88   1.919       .  S
O83          C92   1.282       .  A
O84         Ni88   1.921       .  S
O84          C91   1.283       .  A
O85         Ni88   1.930       .  S
O85          C90   1.283       .  A
O86         Ni88   1.930       .  S
O86          C89   1.284       .  A
Ni87        Ni88   2.384       .  S
C89         C675   1.499       .  S
C90         C632   1.496       .  S
C91         C645   1.478       .  S
C92         C665   1.475       .  S
C93          C94   1.528       .  S
C93          C99   1.537       .  S
C93          C97   1.529       .  S
C93         C612   1.523       .  S
C94         H101   1.087       .  S
C94         C895   1.365       .  D
C95          C96   1.555   1_556  S
C95         C894   1.366       .  D
C95         C602   1.494       .  S
C96         C100   1.554       .  S
C96          C98   1.549       .  S
C96         H102   1.110       .  S
C97         H103   1.087       .  S
C97         C898   1.363       .  D
C98         C897   1.363   1_554  D
C98         C595   1.488       .  S
C99         H904   1.082       .  S
C99         C900   1.364       .  D
C100        C899   1.363       .  D
C100        C622   1.489       .  S
H104        C899   1.081       .  S
O105       Ni113   1.929       .  S
O105        C115   1.284       .  A
O106       Ni113   1.931       .  S
O106        C116   1.284       .  A
O107       Ni113   1.913       .  S
O107        C117   1.281       .  A
O108       Ni113   1.908       .  S
O108        C118   1.278       .  A
O109       Ni114   1.910       .  S
O109        C118   1.279       .  A
O110       Ni114   1.913       .  S
O110        C117   1.281       .  A
O111       Ni114   1.932       .  S
O111        C116   1.285       .  A
O112       Ni114   1.937       .  S
O112        C115   1.286       .  A
Ni113      Ni114   2.385       .  S
C115        C625   1.502       .  S
C116        C575   1.500       .  S
C117        C585   1.481       .  S
C118        C615   1.456       .  S
O119       Ni127   1.937       .  S
O119        C129   1.285       .  A
O120       Ni927   1.937       .  S
O120        C130   1.286       .  A
O121       Ni927   1.913       .  S
O121        C131   1.280       .  A
O122       Ni127   1.918       .  S
O122        C132   1.281       .  A
O123       Ni128   1.909       .  S
O123        C132   1.281       .  A
O124       Ni928   1.913       .  S
O124        C131   1.281       .  A
O125       Ni928   1.926       .  S
O125        C130   1.283       .  A
O126       Ni128   1.925       .  S
O126        C129   1.283       .  A
Ni127       O920   1.938   1_554  S
Ni127       O921   1.913   1_554  S
Ni127      Ni128   2.383       .  S
Ni128       O924   1.911   1_554  S
Ni128       O925   1.925   1_554  S
C129        C635   1.496       .  S
C130        C572   1.500       .  S
C131        C642   1.478       .  S
C132        C582   1.482       .  S
C133        C134   1.523       .  S
C133        C139   1.536       .  S
C133        C137   1.530       .  S
C133        C552   1.518       .  S
C134        H141   1.087       .  S
C134        C935   1.362       .  D
C135        C136   1.551       .  S
C135        C934   1.363   1_554  D
C135        C715   1.488       .  S
C136        C140   1.553       .  S
C136        C138   1.547       .  S
C136        H142   1.110       .  S
C137        H143   1.087       .  S
C137        C938   1.362       .  D
C138        C937   1.362   1_554  D
C138        C545   1.481       .  S
C139        H944   1.084       .  S
C139        C940   1.365       .  D
C140        C939   1.365       .  D
C140        C562   1.483       .  S
H144        C939   1.084       .  S
O145       Ni153   1.919       .  S
O145        C155   1.282       .  A
O146       Ni153   1.918       .  S
O146        C156   1.281       .  A
O147       Ni153   1.904       .  S
O147        C157   1.278       .  A
O148       Ni153   1.907       .  S
O148        C158   1.279       .  A
O149       Ni154   1.910       .  S
O149        C158   1.281       .  A
O150       Ni154   1.908       .  S
O150        C157   1.278       .  A
O151       Ni154   1.936       .  S
O151        C156   1.286       .  A
O152       Ni154   1.931       .  S
O152        C155   1.284       .  A
Ni153      Ni154   2.386       .  S
C155        C522   1.494       .  S
C156        C565   1.497       .  S
C157        C555   1.453       .  S
C158        C532   1.476       .  S
C159        C160   1.530       .  S
C159        C165   1.534       .  S
C159        C163   1.538       .  S
C159        C502   1.523       .  S
C160        H167   1.087       .  S
C160        C161   1.359       .  D
C161        C962   1.544   1_554  S
C161        C492   1.471       .  S
C162        C166   1.544       .  S
C162        C961   1.544       .  S
C162        C964   1.545       .  S
C162        H168   1.111       .  S
C163        H169   1.080       .  S
C163        C164   1.367       .  D
C164        C962   1.546   1_554  S
C164        C485   1.485   1_554  S
C165        H170   1.087       .  S
C165        C966   1.363   1_554  D
C166        C965   1.363       .  D
C166        C512   1.483       .  S
O171       Ni179   1.927       .  S
O171        C181   1.283       .  A
O172       Ni179   1.928       .  S
O172        C182   1.284       .  A
O173       Ni179   1.904       .  S
O173        C183   1.279       .  A
O174       Ni179   1.901       .  S
O174        C184   1.278       .  A
O175       Ni180   1.914       .  S
O175        C184   1.281       .  A
O176       Ni180   1.913       .  S
O176        C183   1.281       .  A
O177       Ni180   1.923       .  S
O177        C182   1.282       .  A
O178       Ni180   1.924       .  S
O178        C181   1.283       .  A
Ni179      Ni180   2.386       .  S
C181        C515   1.487       .  S
C182        C462   1.494       .  S
C183        C472   1.475       .  S
C184        C505   1.472       .  S
O185       Ni993   1.931       .  S
O185        C195   1.284       .  A
O186       Ni193   1.928       .  S
O186        C196   1.284       .  A
O187       Ni193   1.910       .  S
O187        C197   1.280       .  A
O188       Ni993   1.911       .  S
O188        C198   1.280       .  A
O189       Ni994   1.906       .  S
O189        C198   1.280       .  A
O190       Ni194   1.909       .  S
O190        C197   1.280       .  A
O191       Ni194   1.923       .  S
O191        C196   1.282       .  A
O192       Ni994   1.919       .  S
O192        C195   1.283       .  A
Ni193       O985   1.929   1_554  S
Ni193       O988   1.909   1_554  S
Ni193      Ni194   2.384       .  S
Ni194       O989   1.906   1_554  S
Ni194       O992   1.921   1_554  S
C195        C525   1.493       .  S
C196        C465   1.494       .  S
C197        C535   1.477       .  S
C198        C475   1.475       .  S
C199        C200   1.529       .  S
C199        C205   1.534   1_554  S
C199        C203   1.538       .  S
C199        C445   1.526       .  S
C200        H207   1.087       .  S
C200        C201   1.359   1_554  D
C201       C1002   1.546       .  S
C201        C605   1.477       .  S
C202        C206   1.551       .  S
C202       C1001   1.547       .  S
C202       C1004   1.552       .  S
C202        H208   1.109       .  S
C203        H209   1.078       .  S
C203        C204   1.366   1_554  D
C204       C1002   1.551       .  S
C204        C432   1.494       .  S
C205        H210   1.087       .  S
C205       C1006   1.365       .  D
C206       C1005   1.365       .  D
C206        C452   1.487       .  S
O211       Ni219   1.926       .  S
O211        C221   1.283       .  A
O212       Ni219   1.925       .  S
O212        C222   1.283       .  A
O213       Ni219   1.901       .  S
O213        C223   1.278       .  A
O214       Ni219   1.898       .  S
O214        C224   1.279       .  A
O215       Ni220   1.911       .  S
O215        C224   1.280       .  A
O216       Ni220   1.912       .  S
O216        C223   1.280       .  A
O217       Ni220   1.935       .  S
O217        C222   1.285       .  A
O218       Ni220   1.931       .  S
O218        C221   1.284       .  A
Ni219      Ni220   2.385       .  S
C221        C412   1.496       .  S
C222        C455   1.500       .  S
C223        C442   1.465       .  S
C224        C425   1.472       .  S
C225        C226   1.534       .  S
C225        C231   1.527       .  S
C225        C229   1.533       .  S
C225        C395   1.522       .  S
C226        H233   1.082       .  S
C226       C1027   1.367       .  D
C227        C228   1.552   1_556  S
C227       C1026   1.367       .  D
C227        C495   1.491       .  S
C228        C232   1.549       .  S
C228        C230   1.547   1_554  S
C228        H234   1.110       .  S
C229        H235   1.086       .  S
C229       C1030   1.362       .  D
C230       C1029   1.362       .  D
C230        C382   1.485       .  S
C231       H1036   1.087       .  S
C231       C1032   1.362       .  D
C232       C1031   1.362   1_554  D
C232        C405   1.483       .  S
H236       C1031   1.087   1_554  S
O237       Ni245   1.924       .  S
O237        C247   1.283       .  A
O238       Ni245   1.926       .  S
O238        C248   1.284       .  A
O239       Ni245   1.904       .  S
O239        C249   1.279       .  A
O240       Ni245   1.903       .  S
O240        C250   1.279       .  A
O241       Ni246   1.909       .  S
O241        C250   1.280       .  A
O242       Ni246   1.910       .  S
O242        C249   1.280       .  A
O243       Ni246   1.928       .  S
O243        C248   1.284       .  A
O244       Ni246   1.928       .  S
O244        C247   1.284       .  A
Ni245      Ni246   2.385       .  S
C247        C362   1.494       .  S
C248        C402   1.496       .  S
C249        C392   1.473       .  S
C250        C372   1.470       .  S
O251      Ni1059   1.928       .  S
O251        C261   1.284       .  A
O252       Ni259   1.931   1_554  S
O252        C262   1.284       .  A
O253       Ni259   1.914   1_554  S
O253        C263   1.281       .  A
O254      Ni1059   1.909       .  S
O254        C264   1.280       .  A
O255      Ni1060   1.898       .  S
O255        C264   1.278       .  A
O256       Ni260   1.898   1_554  S
O256        C263   1.278       .  A
O257       Ni260   1.923   1_554  S
O257        C262   1.283       .  A
O258      Ni1060   1.924       .  S
O258        C261   1.283       .  A
Ni259      O1051   1.929       .  S
Ni259      O1054   1.912       .  S
Ni259      Ni260   2.385       .  S
Ni260      O1055   1.898       .  S
Ni260      O1058   1.923       .  S
C261        C365   1.495       .  S
C262        C415   1.494       .  S
C263        C375   1.469       .  S
C264        C422   1.471       .  S
O265       Ni273   1.908   1_545  S
O265       C1075   1.277       .  A
O266       Ni273   1.901       .  S
O266       C1076   1.279       .  A
O267       Ni273   1.919   1_545  S
O267       C1077   1.282       .  A
O268       Ni273   1.923       .  S
O268       C1078   1.285       .  A
O269       Ni274   1.919       .  S
O269        C278   1.280       .  A
O270       Ni274   1.919   1_545  S
O270        C277   1.282       .  A
O271       Ni274   1.925       .  S
O271        C276   1.283       .  A
O272       Ni274   1.925   1_545  S
O272        C275   1.283   1_554  A
Ni273     Ni1074   2.386       .  S
Ni274     Ni1073   2.386   1_554  S
C275       O1065   1.277       .  A
C275        C482   1.465       .  S
C276       O1066   1.279   1_554  A
C276        C352   1.481       .  S
C277       O1067   1.283   1_554  A
C277        C345   1.488       .  S
C278       O1068   1.285   1_554  A
C278        C592   1.491       .  S
O279       Ni287   1.911   1_655  S
O279       C1089   1.278       .  A
O280       Ni287   1.908       .  S
O280       C1090   1.280       .  A
O281       Ni287   1.916   1_655  S
O281       C1091   1.282       .  A
O282       Ni287   1.923       .  S
O282       C1092   1.284       .  A
O283       Ni288   1.911       .  S
O283        C292   1.279   1_554  A
O284       Ni288   1.912   1_655  S
O284        C291   1.280       .  A
O285       Ni288   1.929       .  S
O285        C290   1.284       .  A
O286       Ni288   1.929   1_655  S
O286        C289   1.284   1_554  A
Ni287     Ni1088   2.387       .  S
Ni288     Ni1087   2.386   1_554  S
C289       O1079   1.278       .  A
C289        C702   1.471       .  S
C290       O1080   1.280   1_554  A
C290        C342   1.487       .  S
C291       O1081   1.283   1_554  A
C291        C335   1.481       .  S
C292       O1082   1.285       .  A
C292        C385   1.486       .  S
O293       Ni301   1.912   1_655  S
O293        C303   1.279       .  A
O294       Ni301   1.911       .  S
O294        C304   1.280       .  A
O295       Ni301   1.930   1_655  S
O295        C305   1.285       .  A
O296       Ni301   1.931       .  S
O296        C306   1.284   1_554  A
O297       Ni302   1.910       .  S
O297       C1106   1.277       .  A
O298       Ni302   1.905   1_655  S
O298       C1105   1.279       .  A
O299       Ni302   1.914       .  S
O299       C1104   1.282       .  A
O300       Ni302   1.922   1_655  S
O300       C1103   1.284       .  A
Ni301     Ni1102   2.387   1_554  S
Ni302     Ni1101   2.386       .  S
C303       O1100   1.284   1_554  A
C303        C772   1.483       .  S
C304       O1099   1.282   1_554  A
C304        C355   1.480       .  S
C305       O1098   1.279   1_554  A
C305        C325   1.485       .  S
C306       O1097   1.277       .  A
C306        C435   1.470       .  S
O307       Ni315   1.911   1_565  S
O307       C1117   1.277       .  A
O308       Ni315   1.902       .  S
O308       C1118   1.279       .  A
O309       Ni315   1.921   1_565  S
O309       C1119   1.283       .  A
O310       Ni315   1.925       .  S
O310       C1120   1.285       .  A
O311       Ni316   1.912       .  S
O311        C320   1.279       .  A
O312       Ni316   1.913   1_565  S
O312        C319   1.280       .  A
O313       Ni316   1.930       .  S
O313        C318   1.284       .  A
O314       Ni316   1.930   1_565  S
O314        C317   1.284       .  A
Ni315     Ni1116   2.386       .  S
Ni316     Ni1115   2.386   1_554  S
C317       O1107   1.277   1_554  A
C317        C652   1.472       .  S
C318       O1108   1.279   1_554  A
C318        C332   1.483       .  S
C319       O1109   1.283   1_554  A
C319        C322   1.485       .  S
C320       O1110   1.285   1_554  A
C320        C542   1.486       .  S
C321        C322   1.409       .  A
C321        C326   1.400       .  A
C321        H328   1.083       .  S
C322        C323   1.407   1_554  A
C323        C324   1.396       .  A
C323        F330   1.357       .  S
C324        C325   1.408   1_556  A
C324        H329   1.083       .  S
C325        C326   1.407       .  A
C326        F327   1.357       .  S
C331        C336   1.394       .  A
C331       C1132   1.407       .  A
C331        H338   1.083       .  S
C332        C333   1.407       .  A
C332       C1131   1.407   1_554  A
C333        C334   1.400       .  A
C333        F340   1.357       .  S
C334        C335   1.408       .  A
C334        H339   1.083       .  S
C335       C1136   1.405   1_554  A
C336       C1135   1.406       .  A
C336        F337   1.358       .  S
C341        C346   1.396       .  A
C341       C1142   1.407       .  A
C341        H348   1.083       .  S
C342        C343   1.408       .  A
C342       C1141   1.407   1_554  A
C343        C344   1.401       .  A
C343        F350   1.357       .  S
C344        C345   1.409       .  A
C344        H349   1.083       .  S
C345       C1146   1.408   1_554  A
C346       C1145   1.408       .  A
C346        F347   1.357       .  S
C351        C356   1.393       .  A
C351       C1152   1.406       .  A
C351        H358   1.083       .  S
C352        C353   1.407       .  A
C352       C1151   1.406   1_554  A
C353        C354   1.400       .  A
C353        F360   1.357       .  S
C354        C355   1.408       .  A
C354        H359   1.083       .  S
C355       C1156   1.406   1_554  A
C356       C1155   1.407       .  A
C356        F357   1.357       .  S
C361        C362   1.407       .  A
C361        C366   1.401       .  A
C361        H368   1.083       .  S
C362        C363   1.411       .  A
C363        C364   1.403       .  A
C363        F370   1.357       .  S
C364        C365   1.408       .  A
C364        H369   1.083       .  S
C365        C366   1.411       .  A
C366        F367   1.357       .  S
C371        C372   1.405       .  A
C371        C376   1.395       .  A
C371        H378   1.083       .  S
C372        C373   1.406       .  A
C373        C374   1.390       .  A
C373        F380   1.358       .  S
C374        C375   1.403       .  A
C374        H379   1.083       .  S
C375        C376   1.406       .  A
C376        F377   1.357       .  S
C381        C382   1.407       .  A
C381        C386   1.395       .  A
C381        H388   1.083       .  S
C382       C1183   1.402   1_556  A
C383        C384   1.402       .  A
C383       C1182   1.402       .  A
C383        F390   1.357       .  S
C384       C1185   1.411       .  A
C384        H389   1.083       .  S
C385        C386   1.407       .  A
C385       C1184   1.411   1_556  A
C386        F387   1.357       .  S
C391        C392   1.403       .  A
C391        C396   1.395       .  A
C391        H398   1.083       .  S
C392        C393   1.406       .  A
C393        C394   1.390       .  A
C393        F400   1.358       .  S
C394        C395   1.407       .  A
C394        H399   1.083       .  S
C395        C396   1.413       .  A
C396        F397   1.356       .  S
C401        C402   1.410       .  A
C401        C406   1.402       .  A
C401        H408   1.083       .  S
C402        C403   1.413       .  A
C403        C404   1.404       .  A
C403        F410   1.357       .  S
C404        C405   1.402       .  A
C404        H409   1.083       .  S
C405        C406   1.403       .  A
C406        F407   1.357       .  S
C411        C412   1.408       .  A
C411        C416   1.405       .  A
C411        H418   1.083       .  S
C412        C413   1.411       .  A
C413        C414   1.402       .  A
C413        F420   1.357       .  S
C414        C415   1.407       .  A
C414        H419   1.083       .  S
C415        C416   1.410       .  A
C416        F417   1.357       .  S
C421        C422   1.405       .  A
C421        C426   1.395       .  A
C421        H428   1.083       .  S
C422        C423   1.407       .  A
C423        C424   1.388       .  A
C423        F430   1.358       .  S
C424        C425   1.403       .  A
C424        H429   1.083       .  S
C425        C426   1.408       .  A
C426        F427   1.357       .  S
C431        C432   1.412   1_554  A
C431        C436   1.399       .  A
C431        H438   1.083       .  S
C432       C1233   1.407       .  A
C433        C434   1.402       .  A
C433       C1232   1.407       .  A
C433        F440   1.355       .  S
C434       C1235   1.404       .  A
C434        H439   1.084       .  S
C435        C436   1.399   1_556  A
C435       C1234   1.403       .  A
C436        F437   1.358       .  S
C441        C442   1.400       .  A
C441        C446   1.396       .  A
C441        H448   1.083       .  S
C442        C443   1.400       .  A
C443        C444   1.391       .  A
C443        F450   1.358       .  S
C444        C445   1.412       .  A
C444        H449   1.074       .  S
C445        C446   1.413       .  A
C446        F447   1.358       .  S
C451        C452   1.403       .  A
C451        C456   1.405       .  A
C451        H458   1.083       .  S
C452        C453   1.404       .  A
C453        C454   1.404       .  A
C453        F460   1.357       .  S
C454        C455   1.411       .  A
C454        H459   1.083       .  S
C455        C456   1.413       .  A
C456        F457   1.357       .  S
C461        C462   1.407       .  A
C461        C466   1.402       .  A
C461        H468   1.083       .  S
C462        C463   1.411       .  A
C463        C464   1.402       .  A
C463        F470   1.357       .  S
C464        C465   1.407       .  A
C464        H469   1.083       .  S
C465        C466   1.411       .  A
C466        F467   1.357       .  S
C471        C472   1.405       .  A
C471        C476   1.396       .  A
C471        H478   1.083       .  S
C472        C473   1.408       .  A
C473        C474   1.391       .  A
C473        F480   1.358       .  S
C474        C475   1.403       .  A
C474        H479   1.083       .  S
C475        C476   1.408       .  A
C476        F477   1.357       .  S
C481        C486   1.397       .  A
C481       C1282   1.397       .  A
C481        H488   1.083       .  S
C482        C483   1.405       .  A
C482       C1281   1.397   1_556  A
C483        C484   1.400       .  A
C483        F490   1.358       .  S
C484        C485   1.404       .  A
C484        H489   1.083       .  S
C485       C1286   1.412   1_556  A
C486       C1285   1.411       .  A
C486        F487   1.358       .  S
C491        C496   1.395       .  A
C491       C1292   1.397       .  A
C491        H498   1.084       .  S
C492        C493   1.404       .  A
C492       C1291   1.397   1_554  A
C493        C494   1.403       .  A
C493        F500   1.357       .  S
C494        C495   1.407   1_554  A
C494        H499   1.082       .  S
C495       C1296   1.413       .  A
C496       C1295   1.413       .  A
C496        F497   1.357       .  S
C501        C502   1.409       .  A
C501        C506   1.393       .  A
C501        H508   1.076       .  S
C502        C503   1.412       .  A
C503        C504   1.393       .  A
C503        F510   1.358       .  S
C504        C505   1.401       .  A
C504        H509   1.083       .  S
C505        C506   1.405       .  A
C506        F507   1.358       .  S
C511        C512   1.403       .  A
C511        C516   1.405       .  A
C511        H518   1.083       .  S
C512        C513   1.405       .  A
C513        C514   1.399       .  A
C513        F520   1.358       .  S
C514        C515   1.406       .  A
C514        H519   1.083       .  S
C515        C516   1.411       .  A
C516        F517   1.357       .  S
C521        C522   1.409       .  A
C521        C526   1.406       .  A
C521        H528   1.083       .  S
C522        C523   1.410       .  A
C523        C524   1.398       .  A
C523        F530   1.357       .  S
C524        C525   1.406       .  A
C524        H529   1.083       .  S
C525        C526   1.411       .  A
C526        F527   1.357       .  S
C531        C532   1.404       .  A
C531        C536   1.394       .  A
C531        H538   1.083       .  S
C532        C533   1.408       .  A
C533        C534   1.394       .  A
C533        F540   1.358       .  S
C534        C535   1.405       .  A
C534        H539   1.083       .  S
C535        C536   1.408       .  A
C536        F537   1.357       .  S
C541        C542   1.412       .  A
C541        C546   1.404       .  A
C541        H548   1.083       .  S
C542       C1343   1.407   1_554  A
C543        C544   1.394       .  A
C543       C1342   1.407       .  A
C543        F550   1.357       .  S
C544       C1345   1.405       .  A
C544        H549   1.084       .  S
C545        C546   1.402       .  A
C545       C1344   1.405   1_554  A
C546        F547   1.357       .  S
C551        C552   1.409       .  A
C551        C556   1.395       .  A
C551        H558   1.079       .  S
C552        C553   1.416       .  A
C553        C554   1.391       .  A
C553        F560   1.358       .  S
C554        C555   1.394       .  A
C554        H559   1.084       .  S
C555        C556   1.400       .  A
C556        F557   1.358       .  S
C561        C562   1.401       .  A
C561        C566   1.402       .  A
C561        H568   1.084       .  S
C562        C563   1.405       .  A
C563        C564   1.404       .  A
C563        F570   1.357       .  S
C564        C565   1.409       .  A
C564        H569   1.083       .  S
C565        C566   1.414       .  A
C566        F567   1.357       .  S
C571        C572   1.409       .  A
C571        C576   1.404       .  A
C571        H578   1.083       .  S
C572        C573   1.411       .  A
C573        C574   1.406       .  A
C573        F580   1.357       .  S
C574        C575   1.409       .  A
C574        H579   1.083       .  S
C575        C576   1.411       .  A
C576        F577   1.357       .  S
C581        C582   1.405       .  A
C581        C586   1.394       .  A
C581        H588   1.083       .  S
C582        C583   1.409       .  A
C583        C584   1.399       .  A
C583        F590   1.357       .  S
C584        C585   1.407       .  A
C584        H589   1.083       .  S
C585        C586   1.408       .  A
C586        F587   1.357       .  S
C591        C596   1.394       .  A
C591       C1392   1.403       .  A
C591        H598   1.083       .  S
C592        C593   1.415       .  A
C592       C1391   1.404   1_554  A
C593        C594   1.406       .  A
C593        F600   1.357       .  S
C594        C595   1.402       .  A
C594        H599   1.083       .  S
C595       C1396   1.409   1_554  A
C596       C1395   1.409       .  A
C596        F597   1.358       .  S
C601        C602   1.410       .  A
C601        C606   1.396       .  A
C601        H608   1.083       .  S
C602        C603   1.409   1_556  A
C603        C604   1.405       .  A
C603        F610   1.356       .  S
C604        C605   1.404   1_554  A
C604        H609   1.082       .  S
C605        C606   1.401       .  A
C606        F607   1.358       .  S
C611        C612   1.410       .  A
C611        C616   1.394       .  A
C611        H618   1.076       .  S
C612        C613   1.416       .  A
C613        C614   1.395       .  A
C613        F620   1.358       .  S
C614        C615   1.395       .  A
C614        H619   1.084       .  S
C615        C616   1.399       .  A
C616        F617   1.358       .  S
C621        C622   1.402       .  A
C621        C626   1.407       .  A
C621        H628   1.083       .  S
C622        C623   1.407       .  A
C623        C624   1.405       .  A
C623        F630   1.358       .  S
C624        C625   1.409       .  A
C624        H629   1.083       .  S
C625        C626   1.415       .  A
C626        F627   1.357       .  S
C631        C632   1.406       .  A
C631        C636   1.403       .  A
C631        H638   1.083       .  S
C632        C633   1.412       .  A
C633        C634   1.407       .  A
C633        F640   1.357       .  S
C634        C635   1.408       .  A
C634        H639   1.083       .  S
C635        C636   1.410       .  A
C636        F637   1.357       .  S
C641        C642   1.403       .  A
C641        C646   1.394       .  A
C641        H648   1.083       .  S
C642        C643   1.409       .  A
C643        C644   1.398       .  A
C643        F650   1.357       .  S
C644        C645   1.405       .  A
C644        H649   1.083       .  S
C645        C646   1.409       .  A
C646        F647   1.358       .  S
C651        C656   1.397       .  A
C651       C1452   1.397       .  A
C651        H658   1.083       .  S
C652        C653   1.406   1_554  A
C652       C1451   1.397       .  A
C653        C654   1.403       .  A
C653        F660   1.358       .  S
C654        C655   1.405   1_556  A
C654        H659   1.082       .  S
C655       C1456   1.415       .  A
C656       C1455   1.415       .  A
C656        F657   1.358       .  S
C661        C662   1.410       .  A
C661        C666   1.394       .  A
C661        H668   1.080       .  S
C662        C663   1.413       .  A
C663        C664   1.396       .  A
C663        F670   1.358       .  S
C664        C665   1.401       .  A
C664        H669   1.084       .  S
C665        C666   1.405       .  A
C666        F667   1.358       .  S
C671        C672   1.403       .  A
C671        C676   1.404       .  A
C671        H678   1.083       .  S
C672        C673   1.404       .  A
C673        C674   1.406       .  A
C673        F680   1.357       .  S
C674        C675   1.411       .  A
C674        H679   1.083       .  S
C675        C676   1.413       .  A
C676        F677   1.357       .  S
C681        C682   1.409       .  A
C681        C686   1.403       .  A
C681        H688   1.083       .  S
C682        C683   1.410       .  A
C683        C684   1.401       .  A
C683        F690   1.357       .  S
C684        C685   1.408       .  A
C684        H689   1.083       .  S
C685        C686   1.410       .  A
C686        F687   1.357       .  S
C691        C692   1.403       .  A
C691        C696   1.395       .  A
C691        H698   1.083       .  S
C692        C693   1.410       .  A
C693        C694   1.395       .  A
C693        F700   1.358       .  S
C694        C695   1.404       .  A
C694        H699   1.083       .  S
C695        C696   1.409       .  A
C696        F697   1.357       .  S
C701        C702   1.397   1_554  A
C701        C706   1.398       .  A
C701        H708   1.083       .  S
C702       C1503   1.406       .  A
C703        C704   1.402       .  A
C703       C1502   1.406       .  A
C703        F710   1.358       .  S
C704       C1505   1.405       .  A
C704        H709   1.082       .  S
C705        C706   1.415   1_556  A
C705       C1504   1.405       .  A
C706        F707   1.357       .  S
C711        C712   1.399   1_556  A
C711        C716   1.393       .  A
C711        H718   1.084       .  S
C712       C1513   1.406       .  A
C713        C714   1.406       .  A
C713       C1512   1.406       .  A
C713        F720   1.357       .  S
C714       C1515   1.405       .  A
C714        H719   1.083       .  S
C715        C716   1.410   1_554  A
C715       C1514   1.406       .  A
C716        F717   1.358       .  S
C721        C722   1.403       .  A
C721        C726   1.398       .  A
C721        H728   1.083       .  S
C722        C723   1.407       .  A
C723        C724   1.391       .  A
C723        F730   1.358       .  S
C724        C725   1.408       .  A
C724        H729   1.077       .  S
C725        C726   1.413       .  A
C726        F727   1.358       .  S
C731        C732   1.410       .  A
C731        C736   1.406       .  A
C731        H738   1.083       .  S
C732        C733   1.413       .  A
C733        C734   1.403       .  A
C733        F740   1.357       .  S
C734        C735   1.402       .  A
C734        H739   1.084       .  S
C735        C736   1.405       .  A
C736        F737   1.357       .  S
C741        C742   1.407       .  A
C741        C746   1.404       .  A
C741        H748   1.083       .  S
C742        C743   1.411       .  A
C743        C744   1.399       .  A
C743        F750   1.357       .  S
C744        C745   1.405       .  A
C744        H749   1.083       .  S
C745        C746   1.412       .  A
C746        F747   1.357       .  S
C751        C752   1.404       .  A
C751        C756   1.394       .  A
C751        H758   1.083       .  S
C752        C753   1.409       .  A
C753        C754   1.395       .  A
C753        F760   1.357       .  S
C754        C755   1.404       .  A
C754        H759   1.083       .  S
C755        C756   1.409       .  A
C756        F757   1.358       .  S
C761        C766   1.396       .  A
C761       C1562   1.400       .  A
C761        H768   1.084       .  S
C762        C763   1.406       .  A
C762       C1561   1.399   1_554  A
C763        C764   1.406       .  A
C763        F770   1.357       .  S
C764        C765   1.406       .  A
C764        H769   1.083       .  S
C765       C1566   1.409   1_554  A
C766       C1565   1.408       .  A
C766        F767   1.358       .  S
C771        C776   1.394       .  A
C771       C1572   1.403       .  A
C771        H778   1.083       .  S
C772        C773   1.413       .  A
C772       C1571   1.403   1_554  A
C773        C774   1.403       .  A
C773        F780   1.357       .  S
C774        C775   1.401       .  A
C774        H779   1.080       .  S
C775       C1576   1.408   1_554  A
C776       C1575   1.408       .  A
C776        F777   1.358       .  S
C781        C782   1.408       .  A
C781        C786   1.392       .  A
C781        H788   1.082       .  S
C782        C783   1.414       .  A
C783        C784   1.398       .  A
C783        F790   1.356       .  S
C784        C785   1.404       .  A
C784        H789   1.083       .  S
C785        C786   1.406       .  A
C786        F787   1.358       .  S
C791        C792   1.405       .  A
C791        C796   1.401       .  A
C791        H798   1.084       .  S
C792        C793   1.404       .  A
C793        C794   1.405       .  A
C793        F800   1.354       .  S
C794        C795   1.408       .  A
C794        H799   1.083       .  S
C795        C796   1.411       .  A
C796        F797   1.358       .  S
C801        C802   1.535       .  S
C801        C807   1.526   1_556  S
C801        C805   1.535       .  S
C801       C1582   1.526       .  S
C802        H809   1.083       .  S
C803        C804   1.549       .  S
C803       C1565   1.487       .  S
C804        C808   1.555       .  S
C804        C806   1.544       .  S
C804        H810   1.110       .  S
C805        H811   1.086       .  S
C806       C1575   1.484       .  S
C808       C1592   1.491       .  S
O813       Ni821   1.930       .  S
O813        C823   1.284       .  A
O814       Ni821   1.931       .  S
O814        C824   1.284       .  A
O815       Ni821   1.904       .  S
O815        C825   1.279       .  A
O816       Ni821   1.906       .  S
O816        C826   1.279       .  A
O817       Ni822   1.915       .  S
O817        C826   1.282       .  A
O818       Ni822   1.918       .  S
O818        C825   1.282       .  A
O819       Ni822   1.921       .  S
O819        C824   1.282       .  A
O820       Ni822   1.918       .  S
O820        C823   1.281       .  A
Ni821      Ni822   2.384       .  S
C823       C1542   1.493       .  S
C824       C1595   1.491       .  S
C825       C1585   1.478       .  S
C826       C1552   1.477       .  S
C827        C828   1.527       .  S
C827        C833   1.532       .  S
C827        C831   1.539       .  S
C827       C1525   1.524       .  S
C828        H835   1.087       .  S
C828        C829   1.359       .  D
C829       C1512   1.476       .  S
C830        C834   1.549       .  S
C830        H836   1.110       .  S
C831        H837   1.080       .  S
C831        C832   1.367       .  D
C832       C1505   1.493       .  S
C833        H838   1.087       .  S
C834       C1535   1.488       .  S
O839       Ni847   1.932       .  S
O839        C849   1.285       .  A
O840       Ni847   1.933       .  S
O840        C850   1.285       .  A
O841       Ni847   1.897       .  S
O841        C851   1.277       .  A
O842       Ni847   1.901       .  S
O842        C852   1.278       .  A
O843       Ni848   1.917       .  S
O843        C852   1.283       .  A
O844       Ni848   1.921       .  S
O844        C851   1.283       .  A
O845       Ni848   1.923       .  S
O845        C850   1.282       .  A
O846       Ni848   1.920       .  S
O846        C849   1.282       .  A
Ni847      Ni848   2.384       .  S
C849       C1482   1.495       .  S
C850       C1532   1.493       .  S
C851       C1522   1.476       .  S
C852       C1492   1.476       .  S
O853       Ni861   1.928       .  S
O853        C863   1.284       .  A
O854        C864   1.284       .  A
O855        C865   1.279       .  A
O856       Ni861   1.906       .  S
O856        C866   1.279       .  A
O857       Ni862   1.915       .  S
O857        C866   1.282       .  A
O858        C865   1.282       .  A
O859        C864   1.282       .  A
O860       Ni862   1.922       .  S
O860        C863   1.283       .  A
Ni861      Ni862   2.384       .  S
C863       C1485   1.494       .  S
C864       C1545   1.493       .  S
C865       C1495   1.477       .  S
C866       C1555   1.477       .  S
C867        C868   1.531       .  S
C867        C873   1.535       .  S
C867        C871   1.537       .  S
C867       C1462   1.529       .  S
C868        H875   1.087       .  S
C868        C869   1.361       .  D
C869       C1562   1.477       .  S
C870        C874   1.548       .  S
C870        H876   1.110       .  S
C871        H877   1.080       .  S
C871        C872   1.367       .  D
C872       C1455   1.494       .  S
C873        H878   1.087       .  S
C874       C1472   1.488       .  S
O879       Ni887   1.933       .  S
O879        C889   1.284       .  A
O880       Ni887   1.932       .  S
O880        C890   1.285       .  A
O881       Ni887   1.906       .  S
O881        C891   1.279       .  A
O882       Ni887   1.907       .  S
O882        C892   1.279       .  A
O883       Ni888   1.918       .  S
O883        C892   1.282       .  A
O884       Ni888   1.919       .  S
O884        C891   1.282       .  A
O885       Ni888   1.930       .  S
O885        C890   1.283       .  A
O886       Ni888   1.930       .  S
O886        C889   1.284       .  A
Ni887      Ni888   2.384       .  S
C889       C1475   1.499       .  S
C890       C1432   1.497       .  S
C891       C1445   1.478       .  S
C892       C1465   1.478       .  S
C893        C894   1.529       .  S
C893        C899   1.537   1_556  S
C893        C897   1.528       .  S
C893       C1412   1.525       .  S
C894        H901   1.086       .  S
C895        C896   1.554       .  S
C895       C1402   1.492       .  S
C896        C900   1.554       .  S
C896        C898   1.548       .  S
C896        H902   1.110       .  S
C897        H903   1.087       .  S
C898       C1395   1.486       .  S
C900       C1422   1.488       .  S
O905       Ni913   1.931       .  S
O905        C915   1.284       .  A
O906       Ni913   1.932       .  S
O906        C916   1.285       .  A
O907       Ni913   1.912       .  S
O907        C917   1.281       .  A
O908       Ni913   1.908       .  S
O908        C918   1.278       .  A
O909       Ni914   1.912       .  S
O909        C918   1.279       .  A
O910       Ni914   1.915       .  S
O910        C917   1.281       .  A
O911       Ni914   1.930       .  S
O911        C916   1.284       .  A
O912       Ni914   1.933       .  S
O912        C915   1.285       .  A
Ni913      Ni914   2.385       .  S
C915       C1425   1.500       .  S
C916       C1375   1.500       .  S
C917       C1385   1.483       .  S
C918       C1415   1.456       .  S
O919       Ni927   1.936       .  S
O919        C929   1.285       .  A
O920        C930   1.286       .  A
O921        C931   1.280       .  A
O922       Ni927   1.918       .  S
O922        C932   1.281       .  A
O923       Ni928   1.911       .  S
O923        C932   1.281       .  A
O924        C931   1.281       .  A
O925        C930   1.283       .  A
O926       Ni928   1.926       .  S
O926        C929   1.283       .  A
Ni927      Ni928   2.383       .  S
C929       C1435   1.496       .  S
C930       C1372   1.500       .  S
C931       C1442   1.478       .  S
C932       C1382   1.483       .  S
C933        C934   1.524       .  S
C933        C939   1.536   1_556  S
C933        C937   1.530       .  S
C933       C1352   1.519       .  S
C934        H941   1.087       .  S
C935        C936   1.551       .  S
C935       C1515   1.486       .  S
C936        C940   1.553       .  S
C936        C938   1.548       .  S
C936        H942   1.110       .  S
C937        H943   1.087       .  S
C938       C1345   1.483       .  S
C940       C1362   1.483       .  S
O945       Ni953   1.919       .  S
O945        C955   1.282       .  A
O946       Ni953   1.917       .  S
O946        C956   1.281       .  A
O947       Ni953   1.906       .  S
O947        C957   1.278       .  A
O948       Ni953   1.909       .  S
O948        C958   1.280       .  A
O949       Ni954   1.910       .  S
O949        C958   1.280       .  A
O950       Ni954   1.907       .  S
O950        C957   1.278       .  A
O951       Ni954   1.938       .  S
O951        C956   1.286       .  A
O952       Ni954   1.932       .  S
O952        C955   1.285       .  A
Ni953      Ni954   2.386       .  S
C955       C1322   1.494       .  S
C956       C1365   1.497       .  S
C957       C1355   1.454       .  S
C958       C1332   1.475       .  S
C959        C960   1.530       .  S
C959        C965   1.534       .  S
C959        C963   1.538       .  S
C959       C1302   1.521       .  S
C960        H967   1.087       .  S
C960        C961   1.359       .  D
C961       C1292   1.471       .  S
C962        C966   1.543       .  S
C962        H968   1.110       .  S
C963        H969   1.080       .  S
C963        C964   1.366       .  D
C964       C1285   1.483       .  S
C965        H970   1.087       .  S
C966       C1312   1.483       .  S
O971       Ni979   1.928       .  S
O971        C981   1.283       .  A
O972       Ni979   1.929       .  S
O972        C982   1.284       .  A
O973       Ni979   1.903       .  S
O973        C983   1.279       .  A
O974       Ni979   1.899       .  S
O974        C984   1.278       .  A
O975       Ni980   1.913       .  S
O975        C984   1.281       .  A
O976       Ni980   1.912       .  S
O976        C983   1.281       .  A
O977       Ni980   1.923       .  S
O977        C982   1.282       .  A
O978       Ni980   1.923       .  S
O978        C981   1.283       .  A
Ni979      Ni980   2.386       .  S
C981       C1315   1.488       .  S
C982       C1262   1.495       .  S
C983       C1272   1.474       .  S
C984       C1305   1.469       .  S
O985        C995   1.283       .  A
O986       Ni993   1.930       .  S
O986        C996   1.285       .  A
O987       Ni993   1.912       .  S
O987        C997   1.280       .  A
O988        C998   1.279       .  A
O989        C998   1.280       .  A
O990       Ni994   1.908       .  S
O990        C997   1.280       .  A
O991       Ni994   1.922       .  S
O991        C996   1.282       .  A
O992        C995   1.283       .  A
Ni993      Ni994   2.384       .  S
C995       C1325   1.493       .  S
C996       C1265   1.495       .  S
C997       C1335   1.477       .  S
C998       C1275   1.474       .  S
C999       C1000   1.528       .  S
C999       C1005   1.535       .  S
C999       C1003   1.538       .  S
C999       C1245   1.526       .  S
C1000      H1007   1.087       .  S
C1000      C1001   1.359       .  D
C1001      C1405   1.478       .  S
C1002      C1006   1.550       .  S
C1002      H1008   1.110       .  S
C1003      H1009   1.078       .  S
C1003      C1004   1.366       .  D
C1004      C1232   1.496       .  S
C1005      H1010   1.087       .  S
C1006      C1252   1.486       .  S
O1011     Ni1019   1.926       .  S
O1011      C1021   1.283       .  A
O1012     Ni1019   1.924       .  S
O1012      C1022   1.283       .  A
O1013     Ni1019   1.902       .  S
O1013      C1023   1.279       .  A
O1014     Ni1019   1.901       .  S
O1014      C1024   1.280       .  A
O1015     Ni1020   1.911       .  S
O1015      C1024   1.280       .  A
O1016     Ni1020   1.912       .  S
O1016      C1023   1.280       .  A
O1017     Ni1020   1.933       .  S
O1017      C1022   1.285       .  A
O1018     Ni1020   1.930       .  S
O1018      C1021   1.284       .  A
Ni1019    Ni1020   2.386       .  S
C1021      C1212   1.495       .  S
C1022      C1255   1.496       .  S
C1023      C1242   1.465       .  S
C1024      C1225   1.473       .  S
C1025      C1026   1.533       .  S
C1025      C1031   1.527       .  S
C1025      C1029   1.533       .  S
C1025      C1195   1.522       .  S
C1026      H1033   1.082       .  S
C1027      C1028   1.551       .  S
C1027      C1295   1.490       .  S
C1028      C1032   1.547       .  S
C1028      C1030   1.546       .  S
C1028      H1034   1.110       .  S
C1029      H1035   1.086       .  S
C1030      C1182   1.483       .  S
C1032      C1205   1.481       .  S
O1037     Ni1045   1.921       .  S
O1037      C1047   1.283       .  A
O1038     Ni1045   1.923       .  S
O1038      C1048   1.283       .  A
O1039     Ni1045   1.902       .  S
O1039      C1049   1.279       .  A
O1040     Ni1045   1.901       .  S
O1040      C1050   1.278       .  A
O1041     Ni1046   1.908       .  S
O1041      C1050   1.280       .  A
O1042     Ni1046   1.910       .  S
O1042      C1049   1.280       .  A
O1043     Ni1046   1.929       .  S
O1043      C1048   1.284       .  A
O1044     Ni1046   1.929       .  S
O1044      C1047   1.284       .  A
Ni1045    Ni1046   2.385       .  S
C1047      C1162   1.494       .  S
C1048      C1202   1.495       .  S
C1049      C1192   1.472       .  S
C1050      C1172   1.469       .  S
O1051      C1061   1.284       .  A
O1052     Ni1059   1.930       .  S
O1052      C1062   1.284       .  A
O1053     Ni1059   1.911       .  S
O1053      C1063   1.280       .  A
O1054      C1064   1.281       .  A
O1055      C1064   1.278       .  A
O1056     Ni1060   1.898       .  S
O1056      C1063   1.278       .  A
O1057     Ni1060   1.923       .  S
O1057      C1062   1.283       .  A
O1058      C1061   1.283       .  A
Ni1059    Ni1060   2.385       .  S
C1061      C1165   1.495       .  S
C1062      C1215   1.494       .  S
C1063      C1175   1.469       .  S
C1064      C1222   1.473       .  S
O1065     Ni1073   1.908   1_545  S
O1066     Ni1073   1.900       .  S
O1067     Ni1073   1.920   1_545  S
O1068     Ni1073   1.925       .  S
O1069     Ni1074   1.917       .  S
O1069      C1078   1.280       .  A
O1070     Ni1074   1.917   1_545  S
O1070      C1077   1.281       .  A
O1071     Ni1074   1.924       .  S
O1071      C1076   1.283       .  A
O1072     Ni1074   1.925   1_545  S
O1072      C1075   1.283       .  A
C1075      C1282   1.466       .  S
C1076      C1152   1.481       .  S
C1077      C1145   1.486       .  S
C1078      C1392   1.488       .  S
O1079     Ni1087   1.911   1_655  S
O1080     Ni1087   1.908       .  S
O1081     Ni1087   1.920   1_655  S
O1082     Ni1087   1.926       .  S
O1083     Ni1088   1.911       .  S
O1083      C1092   1.279       .  A
O1084     Ni1088   1.912   1_655  S
O1084      C1091   1.280       .  A
O1085     Ni1088   1.927       .  S
O1085      C1090   1.284       .  A
O1086     Ni1088   1.928   1_655  S
O1086      C1089   1.284       .  A
C1089      C1502   1.470       .  S
C1090      C1142   1.486       .  S
C1091      C1135   1.480       .  S
C1092      C1185   1.484       .  S
O1093     Ni1101   1.913   1_655  S
O1093      C1103   1.279       .  A
O1094     Ni1101   1.911       .  S
O1094      C1104   1.280       .  A
O1095     Ni1101   1.930   1_655  S
O1095      C1105   1.285       .  A
O1096     Ni1101   1.931       .  S
O1096      C1106   1.284       .  A
O1097     Ni1102   1.908       .  S
O1098     Ni1102   1.904   1_655  S
O1099     Ni1102   1.914       .  S
O1100     Ni1102   1.921   1_655  S
C1103      C1572   1.484       .  S
C1104      C1155   1.481       .  S
C1105      C1125   1.486       .  S
C1106      C1235   1.471       .  S
O1107     Ni1115   1.910   1_565  S
O1108     Ni1115   1.903       .  S
O1109     Ni1115   1.921   1_565  S
O1110     Ni1115   1.924       .  S
O1111     Ni1116   1.914       .  S
O1111      C1120   1.279       .  A
O1112     Ni1116   1.914   1_565  S
O1112      C1119   1.281       .  A
O1113     Ni1116   1.927       .  S
O1113      C1118   1.284       .  A
O1114     Ni1116   1.929   1_565  S
O1114      C1117   1.284       .  A
C1117      C1452   1.472       .  S
C1118      C1132   1.481       .  S
C1119      C1122   1.486       .  S
C1120      C1342   1.487       .  S
C1121      C1122   1.409       .  A
C1121      C1126   1.400       .  A
C1121      H1128   1.083       .  S
C1122      C1123   1.407       .  A
C1123      C1124   1.397       .  A
C1123      F1130   1.358       .  S
C1124      C1125   1.408       .  A
C1124      H1129   1.083       .  S
C1125      C1126   1.407       .  A
C1126      F1127   1.357       .  S
C1131      C1136   1.395       .  A
C1131      H1138   1.083       .  S
C1132      C1133   1.407       .  A
C1133      C1134   1.400       .  A
C1133      F1140   1.357       .  S
C1134      C1135   1.407       .  A
C1134      H1139   1.083       .  S
C1136      F1137   1.358       .  S
C1141      C1146   1.397       .  A
C1141      H1148   1.083       .  S
C1142      C1143   1.408       .  A
C1143      C1144   1.400       .  A
C1143      F1150   1.357       .  S
C1144      C1145   1.408       .  A
C1144      H1149   1.083       .  S
C1146      F1147   1.357       .  S
C1151      C1156   1.392       .  A
C1151      H1158   1.083       .  S
C1152      C1153   1.407       .  A
C1153      C1154   1.399       .  A
C1153      F1160   1.357       .  S
C1154      C1155   1.408       .  A
C1154      H1159   1.083       .  S
C1156      F1157   1.357       .  S
C1161      C1162   1.407       .  A
C1161      C1166   1.401       .  A
C1161      H1168   1.083       .  S
C1162      C1163   1.411       .  A
C1163      C1164   1.404       .  A
C1163      F1170   1.357       .  S
C1164      C1165   1.408       .  A
C1164      H1169   1.083       .  S
C1165      C1166   1.411       .  A
C1166      F1167   1.357       .  S
C1171      C1172   1.404       .  A
C1171      C1176   1.394       .  A
C1171      H1178   1.083       .  S
C1172      C1173   1.406       .  A
C1173      C1174   1.390       .  A
C1173      F1180   1.358       .  S
C1174      C1175   1.403       .  A
C1174      H1179   1.083       .  S
C1175      C1176   1.406       .  A
C1176      F1177   1.357       .  S
C1181      C1182   1.406       .  A
C1181      C1186   1.394       .  A
C1181      H1188   1.083       .  S
C1183      C1184   1.402       .  A
C1183      F1190   1.356       .  S
C1184      H1189   1.083       .  S
C1185      C1186   1.407       .  A
C1186      F1187   1.358       .  S
C1191      C1192   1.403       .  A
C1191      C1196   1.396       .  A
C1191      H1198   1.083       .  S
C1192      C1193   1.405       .  A
C1193      C1194   1.389       .  A
C1193      F1200   1.358       .  S
C1194      C1195   1.407       .  A
C1194      H1199   1.083       .  S
C1195      C1196   1.414       .  A
C1196      F1197   1.356       .  S
C1201      C1202   1.410       .  A
C1201      C1206   1.401       .  A
C1201      H1208   1.083       .  S
C1202      C1203   1.413       .  A
C1203      C1204   1.404       .  A
C1203      F1210   1.357       .  S
C1204      C1205   1.402       .  A
C1204      H1209   1.083       .  S
C1205      C1206   1.403       .  A
C1206      F1207   1.357       .  S
C1211      C1212   1.408       .  A
C1211      C1216   1.405       .  A
C1211      H1218   1.083       .  S
C1212      C1213   1.411       .  A
C1213      C1214   1.402       .  A
C1213      F1220   1.357       .  S
C1214      C1215   1.407       .  A
C1214      H1219   1.083       .  S
C1215      C1216   1.410       .  A
C1216      F1217   1.357       .  S
C1221      C1222   1.405       .  A
C1221      C1226   1.396       .  A
C1221      H1228   1.083       .  S
C1222      C1223   1.407       .  A
C1223      C1224   1.388       .  A
C1223      F1230   1.358       .  S
C1224      C1225   1.403       .  A
C1224      H1229   1.083       .  S
C1225      C1226   1.408       .  A
C1226      F1227   1.357       .  S
C1231      C1232   1.413       .  A
C1231      C1236   1.399       .  A
C1231      H1238   1.083       .  S
C1233      C1234   1.401       .  A
C1233      F1240   1.355       .  S
C1234      H1239   1.084       .  S
C1235      C1236   1.399       .  A
C1236      F1237   1.358       .  S
C1241      C1242   1.400       .  A
C1241      C1246   1.396       .  A
C1241      H1248   1.084       .  S
C1242      C1243   1.400       .  A
C1243      C1244   1.391       .  A
C1243      F1250   1.358       .  S
C1244      C1245   1.412       .  A
C1244      H1249   1.075       .  S
C1245      C1246   1.413       .  A
C1246      F1247   1.358       .  S
C1251      C1252   1.403       .  A
C1251      C1256   1.403       .  A
C1251      H1258   1.083       .  S
C1252      C1253   1.403       .  A
C1253      C1254   1.406       .  A
C1253      F1260   1.357       .  S
C1254      C1255   1.411       .  A
C1254      H1259   1.083       .  S
C1255      C1256   1.411       .  A
C1256      F1257   1.357       .  S
C1261      C1262   1.407       .  A
C1261      C1266   1.403       .  A
C1261      H1268   1.083       .  S
C1262      C1263   1.412       .  A
C1263      C1264   1.402       .  A
C1263      F1270   1.357       .  S
C1264      C1265   1.407       .  A
C1264      H1269   1.083       .  S
C1265      C1266   1.412       .  A
C1266      F1267   1.357       .  S
C1271      C1272   1.405       .  A
C1271      C1276   1.396       .  A
C1271      H1278   1.083       .  S
C1272      C1273   1.408       .  A
C1273      C1274   1.391       .  A
C1273      F1280   1.358       .  S
C1274      C1275   1.403       .  A
C1274      H1279   1.083       .  S
C1275      C1276   1.408       .  A
C1276      F1277   1.358       .  S
C1281      C1286   1.396       .  A
C1281      H1288   1.084       .  S
C1282      C1283   1.405       .  A
C1283      C1284   1.400       .  A
C1283      F1290   1.358       .  S
C1284      C1285   1.403       .  A
C1284      H1289   1.083       .  S
C1286      F1287   1.358       .  S
C1291      C1296   1.394       .  A
C1291      H1298   1.084       .  S
C1292      C1293   1.404       .  A
C1293      C1294   1.402       .  A
C1293      F1300   1.357       .  S
C1294      C1295   1.407       .  A
C1294      H1299   1.082       .  S
C1296      F1297   1.357       .  S
C1301      C1302   1.409       .  A
C1301      C1306   1.393       .  A
C1301      H1308   1.076       .  S
C1302      C1303   1.412       .  A
C1303      C1304   1.392       .  A
C1303      F1310   1.358       .  S
C1304      C1305   1.400       .  A
C1304      H1309   1.083       .  S
C1305      C1306   1.405       .  A
C1306      F1307   1.358       .  S
C1311      C1312   1.403       .  A
C1311      C1316   1.405       .  A
C1311      H1318   1.083       .  S
C1312      C1313   1.405       .  A
C1313      C1314   1.399       .  A
C1313      F1320   1.358       .  S
C1314      C1315   1.406       .  A
C1314      H1319   1.083       .  S
C1315      C1316   1.411       .  A
C1316      F1317   1.357       .  S
C1321      C1322   1.408       .  A
C1321      C1326   1.405       .  A
C1321      H1328   1.083       .  S
C1322      C1323   1.411       .  A
C1323      C1324   1.399       .  A
C1323      F1330   1.357       .  S
C1324      C1325   1.406       .  A
C1324      H1329   1.083       .  S
C1325      C1326   1.411       .  A
C1326      F1327   1.357       .  S
C1331      C1332   1.405       .  A
C1331      C1336   1.395       .  A
C1331      H1338   1.083       .  S
C1332      C1333   1.407       .  A
C1333      C1334   1.394       .  A
C1333      F1340   1.358       .  S
C1334      C1335   1.405       .  A
C1334      H1339   1.083       .  S
C1335      C1336   1.408       .  A
C1336      F1337   1.357       .  S
C1341      C1342   1.412       .  A
C1341      C1346   1.405       .  A
C1341      H1348   1.083       .  S
C1343      C1344   1.393       .  A
C1343      F1350   1.357       .  S
C1344      H1349   1.084       .  S
C1345      C1346   1.402       .  A
C1346      F1347   1.357       .  S
C1351      C1352   1.409       .  A
C1351      C1356   1.394       .  A
C1351      H1358   1.079       .  S
C1352      C1353   1.416       .  A
C1353      C1354   1.391       .  A
C1353      F1360   1.358       .  S
C1354      C1355   1.394       .  A
C1354      H1359   1.084       .  S
C1355      C1356   1.400       .  A
C1356      F1357   1.358       .  S
C1361      C1362   1.401       .  A
C1361      C1366   1.402       .  A
C1361      H1368   1.084       .  S
C1362      C1363   1.405       .  A
C1363      C1364   1.405       .  A
C1363      F1370   1.357       .  S
C1364      C1365   1.409       .  A
C1364      H1369   1.083       .  S
C1365      C1366   1.415       .  A
C1366      F1367   1.357       .  S
C1371      C1372   1.409       .  A
C1371      C1376   1.404       .  A
C1371      H1378   1.083       .  S
C1372      C1373   1.411       .  A
C1373      C1374   1.406       .  A
C1373      F1380   1.357       .  S
C1374      C1375   1.409       .  A
C1374      H1379   1.083       .  S
C1375      C1376   1.411       .  A
C1376      F1377   1.357       .  S
C1381      C1382   1.405       .  A
C1381      C1386   1.395       .  A
C1381      H1388   1.083       .  S
C1382      C1383   1.409       .  A
C1383      C1384   1.399       .  A
C1383      F1390   1.357       .  S
C1384      C1385   1.406       .  A
C1384      H1389   1.083       .  S
C1385      C1386   1.408       .  A
C1386      F1387   1.357       .  S
C1391      C1396   1.395       .  A
C1391      H1398   1.083       .  S
C1392      C1393   1.415       .  A
C1393      C1394   1.406       .  A
C1393      F1400   1.357       .  S
C1394      C1395   1.401       .  A
C1394      H1399   1.083       .  S
C1396      F1397   1.358       .  S
C1401      C1402   1.409       .  A
C1401      C1406   1.396       .  A
C1401      H1408   1.083       .  S
C1402      C1403   1.408       .  A
C1403      C1404   1.405       .  A
C1403      F1410   1.357       .  S
C1404      C1405   1.404       .  A
C1404      H1409   1.082       .  S
C1405      C1406   1.401       .  A
C1406      F1407   1.358       .  S
C1411      C1412   1.410       .  A
C1411      C1416   1.394       .  A
C1411      H1418   1.076       .  S
C1412      C1413   1.416       .  A
C1413      C1414   1.395       .  A
C1413      F1420   1.358       .  S
C1414      C1415   1.395       .  A
C1414      H1419   1.084       .  S
C1415      C1416   1.398       .  A
C1416      F1417   1.358       .  S
C1421      C1422   1.403       .  A
C1421      C1426   1.407       .  A
C1421      H1428   1.083       .  S
C1422      C1423   1.406       .  A
C1423      C1424   1.403       .  A
C1423      F1430   1.358       .  S
C1424      C1425   1.409       .  A
C1424      H1429   1.083       .  S
C1425      C1426   1.414       .  A
C1426      F1427   1.357       .  S
C1431      C1432   1.407       .  A
C1431      C1436   1.404       .  A
C1431      H1438   1.083       .  S
C1432      C1433   1.412       .  A
C1433      C1434   1.407       .  A
C1433      F1440   1.357       .  S
C1434      C1435   1.408       .  A
C1434      H1439   1.083       .  S
C1435      C1436   1.411       .  A
C1436      F1437   1.357       .  S
C1441      C1442   1.403       .  A
C1441      C1446   1.394       .  A
C1441      H1448   1.083       .  S
C1442      C1443   1.408       .  A
C1443      C1444   1.398       .  A
C1443      F1450   1.357       .  S
C1444      C1445   1.405       .  A
C1444      H1449   1.083       .  S
C1445      C1446   1.409       .  A
C1446      F1447   1.358       .  S
C1451      C1456   1.398       .  A
C1451      H1458   1.083       .  S
C1452      C1453   1.406       .  A
C1453      C1454   1.403       .  A
C1453      F1460   1.358       .  S
C1454      C1455   1.405       .  A
C1454      H1459   1.082       .  S
C1456      F1457   1.358       .  S
C1461      C1462   1.411       .  A
C1461      C1466   1.394       .  A
C1461      H1468   1.076       .  S
C1462      C1463   1.413       .  A
C1463      C1464   1.397       .  A
C1463      F1470   1.358       .  S
C1464      C1465   1.402       .  A
C1464      H1469   1.083       .  S
C1465      C1466   1.405       .  A
C1466      F1467   1.358       .  S
C1471      C1472   1.403       .  A
C1471      C1476   1.404       .  A
C1471      H1478   1.083       .  S
C1472      C1473   1.404       .  A
C1473      C1474   1.407       .  A
C1473      F1480   1.357       .  S
C1474      C1475   1.411       .  A
C1474      H1479   1.082       .  S
C1475      C1476   1.413       .  A
C1476      F1477   1.357       .  S
C1481      C1482   1.409       .  A
C1481      C1486   1.403       .  A
C1481      H1488   1.083       .  S
C1482      C1483   1.409       .  A
C1483      C1484   1.401       .  A
C1483      F1490   1.357       .  S
C1484      C1485   1.408       .  A
C1484      H1489   1.083       .  S
C1485      C1486   1.410       .  A
C1486      F1487   1.357       .  S
C1491      C1492   1.403       .  A
C1491      C1496   1.394       .  A
C1491      H1498   1.083       .  S
C1492      C1493   1.410       .  A
C1493      C1494   1.394       .  A
C1493      F1500   1.358       .  S
C1494      C1495   1.403       .  A
C1494      H1499   1.083       .  S
C1495      C1496   1.409       .  A
C1496      F1497   1.357       .  S
C1501      C1502   1.397       .  A
C1501      C1506   1.397       .  A
C1501      H1508   1.084       .  S
C1503      C1504   1.402       .  A
C1503      F1510   1.358       .  S
C1504      H1509   1.082       .  S
C1505      C1506   1.415       .  A
C1506      F1507   1.357       .  S
C1511      C1512   1.399       .  A
C1511      C1516   1.393       .  A
C1511      H1518   1.084       .  S
C1513      C1514   1.407       .  A
C1513      F1520   1.357       .  S
C1514      H1519   1.083       .  S
C1515      C1516   1.410       .  A
C1516      F1517   1.358       .  S
C1521      C1522   1.403       .  A
C1521      C1526   1.397       .  A
C1521      H1528   1.083       .  S
C1522      C1523   1.407       .  A
C1523      C1524   1.390       .  A
C1523      F1530   1.358       .  S
C1524      C1525   1.407       .  A
C1524      H1529   1.077       .  S
C1525      C1526   1.413       .  A
C1526      F1527   1.358       .  S
C1531      C1532   1.409       .  A
C1531      C1536   1.408       .  A
C1531      H1538   1.083       .  S
C1532      C1533   1.410       .  A
C1533      C1534   1.400       .  A
C1533      F1540   1.357       .  S
C1534      C1535   1.403       .  A
C1534      H1539   1.084       .  S
C1535      C1536   1.406       .  A
C1536      F1537   1.357       .  S
C1541      C1542   1.407       .  A
C1541      C1546   1.403       .  A
C1541      H1548   1.083       .  S
C1542      C1543   1.411       .  A
C1543      C1544   1.400       .  A
C1543      F1550   1.357       .  S
C1544      C1545   1.406       .  A
C1544      H1549   1.083       .  S
C1545      C1546   1.412       .  A
C1546      F1547   1.357       .  S
C1551      C1552   1.404       .  A
C1551      C1556   1.395       .  A
C1551      H1558   1.083       .  S
C1552      C1553   1.409       .  A
C1553      C1554   1.395       .  A
C1553      F1560   1.357       .  S
C1554      C1555   1.404       .  A
C1554      H1559   1.083       .  S
C1555      C1556   1.409       .  A
C1556      F1557   1.358       .  S
C1561      C1566   1.395       .  A
C1561      H1568   1.083       .  S
C1562      C1563   1.406       .  A
C1563      C1564   1.405       .  A
C1563      F1570   1.357       .  S
C1564      C1565   1.406       .  A
C1564      H1569   1.084       .  S
C1566      F1567   1.358       .  S
C1571      C1576   1.393       .  A
C1571      H1578   1.083       .  S
C1572      C1573   1.413       .  A
C1573      C1574   1.403       .  A
C1573      F1580   1.357       .  S
C1574      C1575   1.401       .  A
C1574      H1579   1.079       .  S
C1576      F1577   1.358       .  S
C1581      C1582   1.408       .  A
C1581      C1586   1.391       .  A
C1581      H1588   1.082       .  S
C1582      C1583   1.415       .  A
C1583      C1584   1.398       .  A
C1583      F1590   1.356       .  S
C1584      C1585   1.403       .  A
C1584      H1589   1.083       .  S
C1585      C1586   1.406       .  A
C1586      F1587   1.358       .  S
C1591      C1592   1.405       .  A
C1591      C1596   1.400       .  A
C1591      H1598   1.083       .  S
C1592      C1593   1.405       .  A
C1593      C1594   1.406       .  A
C1593      F1600   1.354       .  S
C1594      C1595   1.408       .  A
C1594      H1599   1.083       .  S
C1595      C1596   1.410       .  A
C1596      F1597   1.358       .  S
