geometry optimzed in LAMMPS
_audit_creation_date              2020-11-30 
_audit_creation_method            'lammps2cif' 
_symmetry_space_group_name_H-M    'P1' 
_symmetry_Int_Tables_number       1 
_symmetry_cell_setting            triclinic 
loop_ 
_symmetry_equiv_pos_as_xyz 
  x,y,z 
_cell_length_a                    32.083654427429146 
_cell_length_b                    30.506217440460674 
_cell_length_c                    29.59273737089768 
_cell_angle_alpha                 90.16630458365906 
_cell_angle_beta                  90.00989988620806 
_cell_angle_gamma                 89.97539541101804 
loop_ 
_atom_site_label 
_atom_site_type_symbol 
_atom_site_fract_x 
_atom_site_fract_y 
_atom_site_fract_z 
_atom_site_charge 
C1          C  0.01480407  0.99090338  0.24277240     0.00350
C2          C  0.97218474  0.99041735  0.24002535     0.00340
Zr3        Zr  0.28552706  0.28461390  0.27245991     2.17510
O4          O  0.29445674  0.36144148  0.29351269    -0.51550
O5          O  0.34027737  0.25880495  0.32253261    -0.74760
O6          O  0.25155618  0.30611134  0.34148606    -0.81540
O7          O  0.35319796  0.30192454  0.16795172    -0.83280
O8          O  0.18377979  0.28507541  0.33897085    -0.78910
O9          O  0.33998512  0.32744705  0.23859421    -0.90550
O10         O  0.33918860  0.18461080  0.32009504    -0.76510
O11         O  0.25344123  0.22081271  0.30241045    -0.86000
O12         O  0.32111468  0.22609419  0.23592353    -0.85690
O13         O  0.21321862  0.29174581  0.25337295    -0.72440
O14         O  0.27517436  0.29557039  0.19333601    -0.84580
Zr15       Zr  0.20507348  0.17740538  0.16681616     2.26420
Zr16       Zr  0.18107296  0.22626544  0.28216320     2.06270
Zr17       Zr  0.30961043  0.23592313  0.15663821     2.10050
Zr18       Zr  0.28812517  0.16216662  0.26489569     1.78760
O19         O  0.31536258  0.26600944  0.08076194    -0.93380
O20         O  0.26761311  0.12405370  0.33362935    -0.41190
O21         O  0.27721381  0.17135208  0.18577082    -0.77820
O22         O  0.21565976  0.16593155  0.24611736    -0.96510
O23         O  0.17041971  0.23649965  0.20295941    -0.89810
O24         O  0.23733721  0.24116963  0.13669725    -0.92660
C25         C  0.35392886  0.22103876  0.33452441     1.01090
C26         C  0.35895641  0.32951475  0.20063415     1.14030
C27         C  0.21383748  0.30824278  0.35521331     1.04810
O28         O  0.17503377  0.18683003  0.35329094    -0.94810
O29         O  0.12918159  0.16828581  0.26609117    -0.90560
O30         O  0.14138698  0.14591384  0.19418140    -0.83700
C31         C  0.12089121  0.14424064  0.23118332     1.11450
O32         O  0.21614040  0.37827927  0.18561499    -0.96790
Zr33       Zr  0.20323244  0.30026507  0.17408460     1.88940
O34         O  0.15219346  0.20288535  0.11401655    -0.73430
O35         O  0.11124640  0.25699283  0.28851753    -0.52700
O36         O  0.14044733  0.33878090  0.19814058    -0.97380
O37         O  0.22169754  0.33555288  0.10299272    -0.54590
O38         O  0.14905317  0.27659305  0.12344234    -0.73950
C39         C  0.13639630  0.24071532  0.10562399     0.98390
O40         O  0.20145397  0.09807177  0.15543284    -0.62770
O41         O  0.38126397  0.20935007  0.15332523    -0.57570
O42         O  0.24042300  0.15218845  0.09958908    -0.94260
O43         O  0.30855386  0.17017543  0.10816857    -0.92680
O44         O  0.35251144  0.12658597  0.24117988    -0.93040
O45         O  0.28169737  0.08348714  0.25215327    -0.91820
C46         C  0.27926047  0.14634565  0.09113364     1.17240
H47         H  0.35067385  0.22642686  0.24206130     0.33180
H48         H  0.20312702  0.13863026  0.25535253     0.44030
H49         H  0.23372060  0.24260770  0.10432922     0.37560
H50         H  0.20177356  0.31789616  0.26698363     0.34040
H51         H  0.29311891  0.10851696  0.34354330     0.25820
H52         H  0.10428294  0.25480912  0.32103078     0.31760
H53         H  0.12812067  0.35049310  0.16996795     0.37670
H54         H  0.36420628  0.11376696  0.26915672     0.32130
H55         H  0.39101076  0.21679456  0.12255610     0.31010
H56         H  0.34507859  0.26232548  0.07259029     0.32690
H57         H  0.21067044  0.31616048  0.07892787     0.31660
H58         H  0.25211984  0.07870261  0.24405054     0.35660
H59         H  0.23088865  0.08830335  0.15544818     0.28390
H60         H  0.30639715  0.36179598  0.32436757     0.32620
H61         H  0.19789535  0.39366410  0.16381248     0.35470
H62         H  0.39737763  0.22891034  0.17355926     0.28080
H63         H  0.19040069  0.08559073  0.18384736     0.40950
H64         H  0.19662811  0.19988994  0.37308054     0.31010
H65         H  0.26369053  0.14752393  0.35641218     0.38630
H66         H  0.25235014  0.33236858  0.10090668     0.30480
H67         H  0.11488704  0.28877202  0.28306641     0.30540
H68         H  0.26614453  0.37408885  0.29645157     0.30810
Zr69       Zr  0.78649178  0.18044033  0.16751804     2.17510
O70         O  0.81147665  0.10872135  0.14231235    -0.51550
O71         O  0.83594457  0.20770234  0.11229652    -0.74760
O72         O  0.74320816  0.14518060  0.11028773    -0.81540
O73         O  0.85887796  0.17061275  0.27157971    -0.83280
O74         O  0.68260351  0.18290408  0.10077206    -0.78910
O75         O  0.84331793  0.14169495  0.20267718    -0.90550
O76         O  0.84164651  0.28113652  0.12078962    -0.76510
O77         O  0.75498905  0.24438109  0.13665000    -0.86000
O78         O  0.82168466  0.24013041  0.20300338    -0.85690
O79         O  0.71426778  0.17480321  0.18806826    -0.72440
O80         O  0.77764841  0.17150685  0.24745909    -0.84580
Zr81       Zr  0.70567951  0.29065278  0.27165436     2.26420
Zr82       Zr  0.68268784  0.24021785  0.15798500     2.06270
Zr83       Zr  0.81096633  0.23299468  0.28279364     2.10050
Zr84       Zr  0.78917951  0.30398741  0.17350982     1.78760
O85         O  0.81647696  0.20033457  0.35753759    -0.93380
O86         O  0.76923456  0.33870186  0.10262891    -0.41190
O87         O  0.77803093  0.29693863  0.25286385    -0.77820
O88         O  0.71700746  0.30104314  0.19248878    -0.96510
O89         O  0.67170128  0.23037096  0.23715694    -0.89810
O90         O  0.73900279  0.22780662  0.30272845    -0.92660
C91         C  0.85272935  0.24476355  0.10307776     1.01090
C92         C  0.86462280  0.14274741  0.23925760     1.14030
C93         C  0.70734353  0.15093754  0.09203191     1.04810
O94         O  0.67443983  0.27675433  0.08545536    -0.94810
O95         O  0.63343081  0.30092568  0.17089506    -0.90560
O96         O  0.64194903  0.32289876  0.24385538    -0.83700
C97         C  0.62383235  0.32497469  0.20529746     1.11450
O98         O  0.71572895  0.08950219  0.25208093    -0.96790
Zr99       Zr  0.70575322  0.16746241  0.26722811     1.88940
O100        O  0.65450615  0.26567353  0.32658303    -0.73430
O101        O  0.61254564  0.20975974  0.15641406    -0.52700
O102        O  0.63936076  0.13361142  0.24754968    -0.97380
O103        O  0.72653295  0.12778476  0.33503387    -0.54590
O104        O  0.65764527  0.19151693  0.32393414    -0.73950
C105        C  0.64268692  0.22742032  0.33931286     0.98390
O106        O  0.70271952  0.37025138  0.27981719    -0.62770
O107        O  0.88103463  0.26347973  0.28791647    -0.57570
O108        O  0.73855798  0.31449107  0.34009307    -0.94260
O109        O  0.80704857  0.29781524  0.33293940    -0.92680
O110        O  0.85265841  0.34070202  0.19813879    -0.93040
O111        O  0.78217122  0.38312876  0.18251280    -0.91820
C112        C  0.77689411  0.32065695  0.34990805     1.16320
H113        H  0.85119178  0.23954339  0.19659939     0.33180
H114        H  0.70489185  0.32834020  0.18264263     0.44030
H115        H  0.73566239  0.22689421  0.33514810     0.37560
H116        H  0.70100916  0.14867032  0.17666925     0.34040
H117        H  0.79438203  0.35499273  0.09297904     0.25820
H118        H  0.60337198  0.21287926  0.12463433     0.31760
H119        H  0.62894125  0.12084144  0.27611940     0.37670
H120        H  0.86402025  0.35451360  0.17052064     0.32130
H121        H  0.89286095  0.25078050  0.31587103     0.31010
H122        H  0.84670562  0.20023447  0.36425450     0.32690
H123        H  0.70011983  0.11680359  0.34808700     0.31660
H124        H  0.75187101  0.38909701  0.18130008     0.35660
H125        H  0.73216623  0.37937083  0.28329757     0.28390
H126        H  0.81479631  0.11062225  0.10910239     0.32620
H127        H  0.69564762  0.07394935  0.27173139     0.35470
H128        H  0.89696254  0.24943147  0.26315371     0.28080
H129        H  0.69504816  0.38178273  0.24970108     0.40950
H130        H  0.69841115  0.26669036  0.06708250     0.31010
H131        H  0.76691285  0.31432914  0.08060957     0.38630
H132        H  0.73604198  0.15053108  0.35659262     0.30480
H133        H  0.61648924  0.17782942  0.16057288     0.30540
H134        H  0.78826560  0.08787720  0.14727763     0.30810
Zr135      Zr  0.70200701  0.68401513  0.27803457     2.17510
O136        O  0.67817312  0.64857862  0.34726008    -0.51550
O137        O  0.65168488  0.62939139  0.24972729    -0.74760
O138        O  0.64646198  0.72338549  0.31760326    -0.81540
O139        O  0.80711819  0.62106436  0.28254666    -0.83280
O140        O  0.63510215  0.79012130  0.28637159    -0.78910
O141        O  0.74642279  0.63393232  0.31959486    -0.90550
O142        O  0.64985603  0.63327160  0.17356555    -0.76510
O143        O  0.66901376  0.71852860  0.21575921    -0.86000
O144        O  0.73301692  0.65120557  0.21296950    -0.85690
O145        O  0.71826448  0.76082577  0.28725521    -0.72440
O146        O  0.77534132  0.70030410  0.28191869    -0.84580
Zr147      Zr  0.78859815  0.78013518  0.16016734     2.26420
Zr148      Zr  0.68523343  0.79507667  0.22372111     2.06270
Zr149      Zr  0.80607769  0.66840422  0.21596406     2.10050
Zr150      Zr  0.70099272  0.68682989  0.15063344     1.78760
O151        O  0.87711905  0.65958506  0.24344006    -0.93380
O152        O  0.63650975  0.70923831  0.11380567    -0.41190
O153        O  0.77394349  0.70318265  0.15259685    -0.77820
O154        O  0.71529945  0.76343345  0.15664895    -0.96510
O155        O  0.75828091  0.81194834  0.22608947    -0.89810
O156        O  0.82181776  0.74488440  0.22218179    -0.92660
C157        C  0.63727037  0.61721532  0.21104555     1.01090
C158        C  0.78206398  0.61511968  0.31594726     1.14030
C159        C  0.62726038  0.76031692  0.31592175     1.04810
O160        O  0.61584152  0.80173848  0.19107284    -0.94810
O161        O  0.68834051  0.84900577  0.16306762    -0.90560
O162        O  0.75328546  0.84567468  0.13207271    -0.83700
C163        C  0.71630030  0.86184344  0.13486909     1.11450
O164        O  0.78461584  0.76883900  0.36949288    -0.96790
Zr165      Zr  0.79152505  0.77667231  0.28782955     1.88940
O166        O  0.84033555  0.83348801  0.18641593    -0.73430
O167        O  0.68318872  0.86707266  0.25941038    -0.52700
O168        O  0.77110296  0.84644323  0.32149301    -0.97380
O169        O  0.85512154  0.75225745  0.32528055    -0.54590
O170        O  0.84421702  0.82853862  0.26277236    -0.73950
C171        C  0.85580788  0.84487604  0.22486583     0.98390
O172        O  0.79541991  0.79216464  0.07862961    -0.62770
O173        O  0.80581137  0.59594101  0.18100825    -0.57570
O174        O  0.85006164  0.74581444  0.12611128    -0.94260
O175        O  0.85424042  0.67582537  0.15213042    -0.92680
O176        O  0.72320812  0.61933100  0.11366183    -0.93040
O177        O  0.70741643  0.69561981  0.06916331    -0.91820
C178        C  0.86582935  0.70699550  0.12565932     1.17240
H179        H  0.72854163  0.61989958  0.21232303     0.33180
H180        H  0.70331722  0.77621444  0.12982901     0.44030
H181        H  0.85161060  0.74938199  0.22140263     0.37560
H182        H  0.70784478  0.77229063  0.31549439     0.34040
H183        H  0.62621728  0.68248162  0.09842035     0.25820
H184        H  0.65376340  0.87652066  0.25671446     0.31760
H185        H  0.79749111  0.86002389  0.33177107     0.37670
H186        H  0.69746788  0.60702022  0.10021686     0.32130
H187        H  0.83562328  0.58848602  0.17701968     0.31010
H188        H  0.88545888  0.62986356  0.23339214     0.32690
H189        H  0.87042201  0.77949093  0.33284453     0.31660
H190        H  0.73025781  0.71708997  0.06530046     0.35660
H191        H  0.80187111  0.76319360  0.06517889     0.28390
H192        H  0.64791364  0.64340524  0.34334351     0.32620
H193        H  0.80275117  0.79168765  0.38290777     0.35470
H194        H  0.79601853  0.57580002  0.20492938     0.28080
H195        H  0.76693199  0.79818407  0.06736172     0.40950
H196        H  0.60088935  0.77500799  0.20083819     0.31010
H197        H  0.61656396  0.71407909  0.13885015     0.38630
H198        H  0.87198111  0.73826955  0.30123021     0.30480
H199        H  0.68709897  0.86128408  0.29203951     0.30540
H200        H  0.68035136  0.67089612  0.37152882     0.30810
Zr201      Zr  0.19935259  0.77974125  0.16505350     2.17510
O202        O  0.17456357  0.81645065  0.09700139    -0.51550
O203        O  0.14734290  0.83304504  0.19251493    -0.74760
O204        O  0.14581330  0.73909937  0.12494451    -0.81540
O205        O  0.30512340  0.84119497  0.15916580    -0.83280
O206        O  0.13112069  0.67375227  0.15730738    -0.78910
O207        O  0.24397620  0.82940377  0.12272424    -0.90550
O208        O  0.14698452  0.83103365  0.26894086    -0.76510
O209        O  0.16598249  0.74582474  0.22744913    -0.86000
O210        O  0.23078873  0.81255002  0.22966557    -0.85690
O211        O  0.21470493  0.70254445  0.15632457    -0.72440
O212        O  0.27242638  0.76266582  0.16037454    -0.84580
Zr213      Zr  0.28528012  0.68303947  0.28237262     2.26420
Zr214      Zr  0.18128447  0.66894270  0.22008289     2.06270
Zr215      Zr  0.30366523  0.79436621  0.22602914     2.10050
Zr216      Zr  0.19844817  0.77750105  0.29217309     1.78760
O217        O  0.37496102  0.79947955  0.19829559    -0.93380
O218        O  0.13452176  0.75630123  0.33073304    -0.41190
O219        O  0.27113040  0.76010711  0.28942725    -0.77820
O220        O  0.21209342  0.70040228  0.28677853    -0.96510
O221        O  0.25416331  0.65148544  0.21689724    -0.89810
O222        O  0.31876411  0.71766759  0.22017710    -0.92660
C223        C  0.13363386  0.84600420  0.23119202     1.01090
C224        C  0.27993038  0.84767410  0.12600026     1.14030
C225        C  0.12570496  0.70278814  0.12634125     1.04810
O226        O  0.11262415  0.66465663  0.25485295    -0.94810
O227        O  0.18624756  0.61366609  0.27954814    -0.90560
O228        O  0.25231678  0.61541013  0.30768855    -0.83700
C229        C  0.21527361  0.59945451  0.30577839     1.11450
O230        O  0.28004985  0.69456083  0.07338618    -0.96790
Zr231      Zr  0.28761148  0.68599224  0.15491645     1.88940
O232        O  0.33920339  0.63154496  0.25639910    -0.73430
O233        O  0.17670311  0.59673966  0.18512052    -0.52700
O234        O  0.26612980  0.61667514  0.12104929    -0.97380
O235        O  0.35171621  0.70828101  0.11711942    -0.54590
O236        O  0.33909732  0.63294461  0.17985034    -0.73950
C237        C  0.35299900  0.61857210  0.21768167     0.98390
O238        O  0.29069851  0.66935247  0.36380214    -0.62770
O239        O  0.30597917  0.86780207  0.25865522    -0.57570
O240        O  0.34354635  0.71962441  0.31959131    -0.94260
O241        O  0.35043783  0.78823476  0.29100902    -0.92680
O242        O  0.22197883  0.84551426  0.32712632    -0.93040
O243        O  0.20610517  0.77054090  0.37369624    -0.91820
C244        C  0.36016213  0.75799983  0.31940502     1.17240
H245        H  0.22649175  0.84389164  0.23009314     0.33180
H246        H  0.20035629  0.68737892  0.31361057     0.44030
H247        H  0.34851948  0.71288123  0.22089384     0.37560
H248        H  0.20462504  0.69065056  0.12814432     0.34040
H249        H  0.12396288  0.78373002  0.34458691     0.25820
H250        H  0.14684882  0.58876783  0.18716541     0.31760
H251        H  0.29226671  0.60286517  0.11031975     0.37670
H252        H  0.19640014  0.85911394  0.33958711     0.32130
H253        H  0.33589892  0.87573660  0.25865837     0.31010
H254        H  0.38454890  0.82893291  0.20782666     0.32690
H255        H  0.36548988  0.68052739  0.10817095     0.31660
H256        H  0.22686417  0.74684808  0.37768226     0.35660
H257        H  0.29498424  0.69831438  0.37824966     0.28390
H258        H  0.14390151  0.81881588  0.09999278     0.32620
H259        H  0.29747282  0.67131220  0.05957403     0.35470
H260        H  0.29337886  0.88716018  0.23558959     0.28080
H261        H  0.26239582  0.66114389  0.37406582     0.40950
H262        H  0.09701469  0.68989873  0.24241989     0.31010
H263        H  0.11452147  0.74981813  0.30613145     0.38630
H264        H  0.36966539  0.72036981  0.14132625     0.30480
H265        H  0.18160803  0.60191810  0.15254052     0.30540
H266        H  0.17919926  0.79544495  0.07192691     0.30810
C267        C  0.31548989  0.98394101  0.99562075     0.00350
C268        C  0.31684547  0.98332195  0.94934598     0.00340
C269        C  0.01598966  0.25685900  0.96335600     0.00350
C270        C  0.97413257  0.25337319  0.96164773     0.00340
C271        C  0.67443051  0.00820988  0.96839766     0.00350
C272        C  0.67667429  0.96390132  0.97732654     0.00340
C273        C  0.97575459  0.67913101  0.97241043     0.00350
C274        C  0.01834431  0.67777007  0.96873710     0.00340
Zr275      Zr  0.28421361  0.69098736  0.65452107     2.17510
O276        O  0.29147754  0.68061588  0.57304885    -0.51550
O277        O  0.33506238  0.63375009  0.67122403    -0.74760
O278        O  0.34439038  0.72733620  0.62200089    -0.81540
O279        O  0.18352500  0.62222763  0.64917405    -0.83280
O280        O  0.35395906  0.79356027  0.65562034    -0.78910
O281        O  0.24585867  0.63532373  0.61574038    -0.90550
O282        O  0.33832925  0.62799159  0.74732791    -0.76510
O283        O  0.32026117  0.71820168  0.71855366    -0.86000
O284        O  0.25579002  0.65119908  0.71642132    -0.85690
O285        O  0.26901887  0.76794044  0.65437378    -0.72440
O286        O  0.21082683  0.70635412  0.65523305    -0.84580
Zr287      Zr  0.20428131  0.77218977  0.78568642     2.26420
Zr288      Zr  0.30477666  0.79504647  0.71965339     2.06270
Zr289      Zr  0.18266369  0.66738503  0.71832748     2.10050
Zr290      Zr  0.29079838  0.67963674  0.78078750     1.78760
O291        O  0.11209496  0.66376951  0.68828629    -0.93380
O292        O  0.35823605  0.69667230  0.81441530    -0.41190
O293        O  0.21776135  0.69489682  0.78402063    -0.77820
O294        O  0.27756422  0.75634590  0.78406665    -0.96510
O295        O  0.23166912  0.81150834  0.72281678    -0.89810
O296        O  0.16816254  0.74421006  0.72153032    -0.92660
C297        C  0.34991805  0.61691363  0.70758694     1.01090
C298        C  0.21042016  0.61624994  0.61734233     1.14030
C299        C  0.36303296  0.76434464  0.62562906     1.04810
O300        O  0.37524813  0.80229866  0.74927978    -0.94810
O301        O  0.30393884  0.84258349  0.78583949    -0.90560
O302        O  0.24067854  0.83391820  0.81953746    -0.83700
C303        C  0.27696909  0.85155233  0.81662645     1.11450
O304        O  0.19964660  0.78152307  0.57656558    -0.96790
Zr305      Zr  0.19588465  0.78302647  0.65889686     1.88940
O306        O  0.15152297  0.82744072  0.77064301    -0.73430
O307        O  0.30349109  0.86926529  0.68960056    -0.52700
O308        O  0.21474730  0.85575820  0.63193537    -0.97380
O309        O  0.12964349  0.76616948  0.62232898    -0.54590
O310        O  0.14580275  0.83142696  0.69442342    -0.73950
C311        C  0.13520610  0.84302973  0.73447861     0.98390
O312        O  0.20066224  0.77376228  0.86832361    -0.62770
O313        O  0.18061693  0.59291066  0.74782021    -0.57570
O314        O  0.14259789  0.73729108  0.81671837    -0.94260
O315        O  0.13470533  0.67043757  0.78332409    -0.92680
O316        O  0.27078661  0.60955131  0.81338177    -0.93040
O317        O  0.28944901  0.68183243  0.86305218    -0.91820
C318        C  0.12470600  0.69981115  0.81287869     1.17240
H319        H  0.26031956  0.62005939  0.71303352     0.33180
H320        H  0.29065565  0.76629588  0.81160535     0.44030
H321        H  0.13849753  0.74890884  0.72431509     0.37560
H322        H  0.27935751  0.78148152  0.62713803     0.34040
H323        H  0.36826412  0.66850496  0.82692333     0.25820
H324        H  0.33219236  0.88032499  0.69422353     0.31760
H325        H  0.18810467  0.86926197  0.62241569     0.37670
H326        H  0.29735207  0.59609302  0.82325555     0.32130
H327        H  0.15131019  0.58352546  0.74380162     0.31010
H328        H  0.10267929  0.63354809  0.69484581     0.32690
H329        H  0.11644743  0.79501783  0.61682597     0.31660
H330        H  0.27009373  0.70604609  0.87056039     0.35660
H331        H  0.19524624  0.74314174  0.87764877     0.28390
H332        H  0.31975769  0.66850650  0.56804537     0.32620
H333        H  0.18248961  0.80646749  0.56601598     0.35470
H334        H  0.19645274  0.57500690  0.72577145     0.28080
H335        H  0.22946970  0.77909029  0.87899884     0.40950
H336        H  0.38913456  0.77431673  0.74139604     0.31010
H337        H  0.37686437  0.70238090  0.78842316     0.38630
H338        H  0.11230470  0.75260852  0.64614830     0.30480
H339        H  0.30100100  0.86542974  0.65647513     0.30540
H340        H  0.29200003  0.71036639  0.55974482     0.30810
C341        C  0.01422122  0.98228315  0.75258737     0.00350
C342        C  0.97192396  0.97975276  0.75294647     0.00340
Zr343      Zr  0.27968111  0.27246536  0.65395526     2.17510
O344        O  0.28314065  0.28059388  0.57199662    -0.51550
O345        O  0.33395619  0.32653730  0.66839026    -0.74760
O346        O  0.24489429  0.33761213  0.62823153    -0.81540
O347        O  0.35320989  0.17393323  0.64815159    -0.83280
O348        O  0.18290009  0.34511421  0.66457369    -0.78910
O349        O  0.33425695  0.23706786  0.61353495    -0.90550
O350        O  0.33945768  0.33344953  0.74436583    -0.76510
O351        O  0.25423917  0.30875355  0.71920872    -0.86000
O352        O  0.32074019  0.24356226  0.71372630    -0.85690
O353        O  0.20698769  0.25436409  0.65546021    -0.72440
O354        O  0.26867154  0.19474082  0.65245284    -0.84580
Zr355      Zr  0.21160957  0.18453451  0.78178797     2.26420
Zr356      Zr  0.18190732  0.28935263  0.72297805     2.06270
Zr357      Zr  0.30849597  0.16597840  0.71410688     2.10050
Zr358      Zr  0.29474876  0.27945014  0.77920845     1.78760
O359        O  0.30773270  0.09178772  0.68347686    -0.93380
O360        O  0.27728757  0.34778614  0.81751887    -0.41190
O361        O  0.28385937  0.20207506  0.78034237    -0.77820
O362        O  0.22215435  0.26199188  0.78479672    -0.96510
O363        O  0.17059331  0.21222154  0.72207220    -0.89810
O364        O  0.23641361  0.14700602  0.71703393    -0.92660
C365        C  0.34971502  0.34405202  0.70402235     1.01090
C366        C  0.35665058  0.20261570  0.61667605     1.14030
C367        C  0.20979147  0.35649542  0.63476421     1.04810
O368        O  0.17413703  0.35874618  0.76290783    -0.94810
O369        O  0.13165553  0.27700901  0.78385161    -0.90560
O370        O  0.14957869  0.21170581  0.81416357    -0.83700
C371        C  0.12633999  0.24536471  0.81193751     1.11450
O372        O  0.20524789  0.17841875  0.57482158    -0.96790
Zr373      Zr  0.19620367  0.17650181  0.65665406     1.88940
O374        O  0.15739311  0.13099985  0.76881579    -0.73430
O375        O  0.11223406  0.29221108  0.69040542    -0.52700
O376        O  0.13045899  0.19800104  0.62193270    -0.97380
O377        O  0.20634014  0.10323109  0.62516704    -0.54590
O378        O  0.14394513  0.13107431  0.69365077    -0.73950
C379        C  0.13635067  0.11854184  0.73426389     0.98390
O380        O  0.21458214  0.18543569  0.86412370    -0.62770
O381        O  0.38085869  0.15555100  0.73684196    -0.57570
O382        O  0.24534155  0.12094060  0.81068346    -0.94260
O383        O  0.31169290  0.12448369  0.78516669    -0.92680
O384        O  0.36478494  0.26276872  0.80589068    -0.93040
O385        O  0.29764269  0.27148452  0.86105211    -0.91820
C386        C  0.28387285  0.11095435  0.81328708     1.17240
H387        H  0.35002400  0.24956058  0.70935683     0.33180
H388        H  0.21154235  0.27377343  0.81285146     0.44030
H389        H  0.23257508  0.11575545  0.72005841     0.37560
H390        H  0.19318770  0.26611171  0.62912872     0.34040
H391        H  0.30419547  0.35876543  0.82940430     0.25820
H392        H  0.10358753  0.32324001  0.69345954     0.31760
H393        H  0.11619734  0.17001848  0.61490310     0.37670
H394        H  0.37570250  0.29103187  0.81739999     0.32130
H395        H  0.39134685  0.13148709  0.71739974     0.31010
H396        H  0.32687105  0.07509425  0.70325718     0.32690
H397        H  0.17871620  0.09491827  0.61291853     0.31660
H398        H  0.26818584  0.27060520  0.87093301     0.35660
H399        H  0.24475775  0.18618982  0.87112780     0.28390
H400        H  0.29526454  0.30996228  0.56655684     0.32620
H401        H  0.18140265  0.16199015  0.56196799     0.35470
H402        H  0.39572594  0.18200742  0.72618392     0.28080
H403        H  0.20461685  0.21475777  0.87362789     0.40950
H404        H  0.19803586  0.37670496  0.75272696     0.31010
H405        H  0.27011910  0.36835031  0.79289143     0.38630
H406        H  0.21024284  0.08367998  0.65145240     0.30480
H407        H  0.11645213  0.28785282  0.65755647     0.30540
H408        H  0.25385593  0.28275577  0.56165228     0.30810
Zr409      Zr  0.77922596  0.18734482  0.78687263     2.17510
O410        O  0.78257498  0.18425056  0.86915694    -0.51550
O411        O  0.83318561  0.13355574  0.77234085    -0.74760
O412        O  0.74598146  0.12199737  0.81450541    -0.81540
O413        O  0.85418196  0.28433829  0.78482281    -0.83280
O414        O  0.68466471  0.11084463  0.77807266    -0.78910
O415        O  0.84075968  0.21896998  0.81886155    -0.90550
O416        O  0.83957478  0.12918197  0.69619422    -0.76510
O417        O  0.75215327  0.14958928  0.72309933    -0.86000
O418        O  0.81717564  0.21556368  0.72457089    -0.85690
O419        O  0.70625669  0.20413185  0.78700203    -0.72440
O420        O  0.76719566  0.26488172  0.78799053    -0.84580
Zr421      Zr  0.70458646  0.27236824  0.65889408     2.26420
Zr422      Zr  0.67954266  0.16783429  0.72099161     2.06270
Zr423      Zr  0.80395026  0.29259130  0.72376577     2.10050
Zr424      Zr  0.78984974  0.17826372  0.66087450     1.78760
O425        O  0.80478177  0.36511907  0.75832309    -0.93380
O426        O  0.77357126  0.10631164  0.62964381    -0.41190
O427        O  0.77726352  0.25552079  0.65871185    -0.77820
O428        O  0.71701822  0.19496323  0.65703658    -0.96510
O429        O  0.66639042  0.24483881  0.72110228    -0.89810
O430        O  0.73157409  0.31055803  0.72237390    -0.92660
C431        C  0.85014720  0.11817453  0.73643508     1.01090
C432        C  0.86190819  0.25412287  0.81375821     1.14030
C433        C  0.71187143  0.10099591  0.80820887     1.04810
O434        O  0.66706201  0.09721678  0.68497607    -0.94810
O435        O  0.62982918  0.17611552  0.65889495    -0.90560
O436        O  0.64123645  0.24371255  0.62924748    -0.83700
C437        C  0.62122099  0.20769758  0.63172093     1.11450
O438        O  0.70115538  0.27768936  0.86705203    -0.96790
Zr439      Zr  0.69427219  0.28170231  0.78504897     1.88940
O440        O  0.65330745  0.32903780  0.67382752    -0.73430
O441        O  0.61193551  0.16792833  0.75843398    -0.52700
O442        O  0.62722809  0.26232412  0.81810484    -0.97380
O443        O  0.70854704  0.35321713  0.81876722    -0.54590
O444        O  0.64459644  0.33116194  0.74980414    -0.73950
C445        C  0.63535295  0.34358285  0.70957383     0.98390
O446        O  0.70126195  0.27298975  0.57635289    -0.62770
O447        O  0.87379351  0.30227416  0.69294428    -0.57570
O448        O  0.73944925  0.33333235  0.62580593    -0.94260
O449        O  0.80381236  0.33876254  0.65664100    -0.92680
O450        O  0.85625963  0.19815257  0.62683449    -0.93040
O451        O  0.78703110  0.17858740  0.57865647    -0.91820
C452        C  0.77627053  0.34904653  0.62692229     1.17240
H453        H  0.84672672  0.21024242  0.72751007     0.33180
H454        H  0.70605768  0.18244554  0.62947667     0.44030
H455        H  0.72757671  0.34179357  0.71932954     0.37560
H456        H  0.69333543  0.19246754  0.81388310     0.34040
H457        H  0.80022932  0.09570701  0.61676009     0.25820
H458        H  0.60059250  0.13822736  0.75281831     0.31760
H459        H  0.61406053  0.29071714  0.82590967     0.37670
H460        H  0.86922923  0.16985006  0.61831901     0.32130
H461        H  0.88658167  0.32572228  0.71152622     0.31010
H462        H  0.83207425  0.37766882  0.74964996     0.32690
H463        H  0.68092456  0.36443928  0.82825552     0.31660
H464        H  0.76859717  0.20353153  0.57111992     0.35660
H465        H  0.73051112  0.27576334  0.56609471     0.28390
H466        H  0.79565363  0.15566746  0.87623386     0.32620
H467        H  0.67842948  0.29603125  0.87956549     0.35470
H468        H  0.88918089  0.27533867  0.70125203     0.28080
H469        H  0.69360828  0.24279789  0.56722023     0.40950
H470        H  0.69402070  0.08157186  0.68716146     0.31010
H471        H  0.76889170  0.08742836  0.65631527     0.38630
H472        H  0.71670127  0.37234136  0.79330908     0.30480
H473        H  0.61840037  0.16837351  0.79114836     0.30540
H474        H  0.75330352  0.18136406  0.87933210     0.30810
Zr475      Zr  0.77856374  0.77220554  0.79223278     2.17510
O476        O  0.77630855  0.78169707  0.87410228    -0.51550
O477        O  0.83349668  0.82568484  0.78012747    -0.74760
O478        O  0.83699956  0.73784881  0.82860707    -0.81540
O479        O  0.67890786  0.84197127  0.79149792    -0.83280
O480        O  0.85531690  0.67583028  0.79135104    -0.78910
O481        O  0.74132943  0.83155995  0.82577463    -0.90550
O482        O  0.84530818  0.82784287  0.70471199    -0.76510
O483        O  0.81879748  0.74622915  0.73067167    -0.86000
O484        O  0.75331900  0.81232024  0.72913312    -0.85690
O485        O  0.76603577  0.69486255  0.79150646    -0.72440
O486        O  0.70567106  0.75618813  0.78788853    -0.84580
Zr487      Zr  0.70751344  0.69124635  0.65837494     2.26420
Zr488      Zr  0.80553193  0.66912803  0.72803085     2.06270
Zr489      Zr  0.68046543  0.79527335  0.72335999     2.10050
Zr490      Zr  0.79246267  0.78484651  0.66714743     1.78760
O491        O  0.60843740  0.79610859  0.74927502    -0.93380
O492        O  0.85698808  0.76610446  0.62824499    -0.41190
O493        O  0.71982296  0.76858807  0.66037601    -0.77820
O494        O  0.78050131  0.70780107  0.66270249    -0.96510
O495        O  0.73280668  0.65178045  0.72192461    -0.89810
O496        O  0.66750073  0.71804586  0.72006885    -0.92660
C497        C  0.85368369  0.83916937  0.74542536     1.01090
C498        C  0.70569491  0.85005797  0.82294985     1.14030
C499        C  0.86012773  0.70405291  0.82351076     1.04810
O500        O  0.87622143  0.66047592  0.69947149    -0.94810
O501        O  0.80633942  0.62076618  0.66198157    -0.90560
O502        O  0.74265218  0.62766677  0.62904076    -0.83700
C503        C  0.77906672  0.61063510  0.63182224     1.11450
O504        O  0.69360866  0.68531503  0.86603829    -0.96790
Zr505      Zr  0.69327294  0.67899065  0.78383784     1.88940
O506        O  0.65254735  0.63746892  0.67094074    -0.73430
O507        O  0.80481322  0.59638998  0.76165131    -0.52700
O508        O  0.71233536  0.60823866  0.81577852    -0.97380
O509        O  0.62395437  0.69230974  0.81486898    -0.54590
O510        O  0.64818505  0.62637585  0.74667398    -0.73950
C511        C  0.63722534  0.61831871  0.70583310     0.98390
O512        O  0.71082159  0.68829282  0.57573292    -0.62770
O513        O  0.67671439  0.86992048  0.69447177    -0.57570
O514        O  0.65070945  0.72704016  0.61997842    -0.94260
O515        O  0.63742305  0.79217306  0.65420202    -0.92680
O516        O  0.77872086  0.85971344  0.64298727    -0.93040
O517        O  0.78728393  0.78919985  0.58517915    -0.91820
C518        C  0.63157327  0.76381590  0.62228361     1.17240
H519        H  0.75777543  0.84339853  0.73319914     0.33180
H520        H  0.79446784  0.69771034  0.63571586     0.44030
H521        H  0.63815067  0.71267700  0.71536377     0.37560
H522        H  0.77584443  0.68156729  0.81911527     0.34040
H523        H  0.86981095  0.79467264  0.62065484     0.25820
H524        H  0.83366325  0.58547349  0.75777220     0.31760
H525        H  0.68547141  0.59399460  0.82317664     0.37670
H526        H  0.80605239  0.87082639  0.63252892     0.32130
H527        H  0.64814515  0.87987339  0.70190786     0.31010
H528        H  0.59915243  0.82677615  0.74502914     0.32690
H529        H  0.61308937  0.66288168  0.82255315     0.31660
H530        H  0.78033536  0.75902546  0.57536661     0.35660
H531        H  0.70857734  0.71912425  0.56564496     0.28390
H532        H  0.80174654  0.79838856  0.88197625     0.32620
H533        H  0.67687302  0.66036410  0.87728510     0.35470
H534        H  0.69498384  0.88745732  0.71451675     0.28080
H535        H  0.73990319  0.68054664  0.56787465     0.40950
H536        H  0.88970259  0.68916989  0.70506349     0.31010
H537        H  0.87519932  0.75388471  0.65210007     0.38630
H538        H  0.60674567  0.70183510  0.78893213     0.30480
H539        H  0.80209793  0.60173800  0.79453531     0.30540
H540        H  0.78049108  0.75217756  0.88717615     0.30810
C541        C  0.49265619  0.45879347  0.69115910     0.00350
C542        C  0.49324829  0.50363800  0.69054689     0.00340
C543        C  0.49338011  0.45527248  0.19474511     0.00350
C544        C  0.49490555  0.49922755  0.20421482     0.00340
C545        C  0.81259688  0.48119449  0.49541268     0.00350
C546        C  0.81344295  0.48009133  0.44914645     0.00340
C547        C  0.49659519  0.78660734  0.49463234     0.00350
C548        C  0.49445908  0.78398871  0.44818734     0.00340
C549        C  0.18871433  0.45483688  0.47560378     0.00350
C550        C  0.18686560  0.49825599  0.46522308     0.00340
C551        C  0.49795975  0.20642208  0.45093638     0.00350
C552        C  0.49519148  0.19819681  0.49576970     0.00340
C553        C  0.60087554  0.77327819  0.58532284    -0.05680
C554        C  0.57548552  0.81084573  0.58711876    -0.33110
C555        C  0.54402925  0.81780939  0.55485250     0.36140
C556        C  0.53705825  0.78694226  0.51996385    -0.06040
C557        C  0.56399463  0.75101005  0.51651060    -0.33010
C558        C  0.59573550  0.74420999  0.54813598     0.36040
H559        H  0.57897016  0.83422958  0.61446936     0.16410
O560        O  0.51864368  0.85373314  0.55927812    -0.60510
H561        H  0.55860483  0.72601255  0.49123970     0.16430
O562        O  0.61995490  0.70743091  0.54341081    -0.60610
H563        H  0.64051418  0.71479734  0.51958997     0.43420
H564        H  0.52935945  0.87526817  0.53710099     0.43380
C565        C  0.78943732  0.57844586  0.59616386    -0.05680
C566        C  0.75644141  0.55638189  0.57505495    -0.33110
C567        C  0.76344052  0.52824124  0.53885703     0.36140
C568        C  0.80435833  0.52103272  0.52289447    -0.06040
C569        C  0.83750875  0.54375357  0.54313489    -0.33010
C570        C  0.83029808  0.57245952  0.57954495     0.36040
H571        H  0.72471635  0.56052775  0.58692841     0.16410
O572        O  0.73018567  0.50607416  0.52052971    -0.60510
H573        H  0.86916688  0.53769679  0.53204227     0.16430
O574        O  0.86335293  0.59401422  0.59877933    -0.60610
H575        H  0.86535948  0.62218368  0.58228364     0.43420
H576        H  0.71097337  0.52875565  0.50859953     0.43380
C577        C  0.60323071  0.58623637  0.69905769    -0.05680
C578        C  0.57146760  0.59564764  0.66817318    -0.33110
C579        C  0.53621438  0.56880107  0.66482759     0.36140
C580        C  0.53247290  0.53074178  0.69184675    -0.06040
C581        C  0.56455651  0.52160839  0.72292199    -0.33010
C582        C  0.59993327  0.54839851  0.72598074     0.36040
H583        H  0.57310456  0.62502763  0.64773325     0.16410
O584        O  0.50541427  0.58049267  0.63511704    -0.60510
H585        H  0.56183753  0.49458382  0.74621707     0.16430
O586        O  0.63087539  0.53761653  0.75594284    -0.60610
H587        H  0.65079020  0.51948920  0.73832156     0.43420
H588        H  0.49054677  0.60528205  0.64977918     0.43380
C589        C  0.78732997  0.37998972  0.59044366    -0.05680
C590        C  0.82733016  0.39873692  0.58881365    -0.33110
C591        C  0.83747015  0.42934427  0.55538219     0.36140
C592        C  0.80783779  0.44064749  0.52243369    -0.06040
C593        C  0.76906723  0.41981846  0.52234481    -0.33010
C594        C  0.75839882  0.39023786  0.55588262     0.36040
H595        H  0.85046313  0.39071838  0.61414320     0.16410
O596        O  0.87614139  0.44852229  0.55534389    -0.60510
H597        H  0.74546705  0.42876086  0.49799878     0.16430
O598        O  0.71863282  0.37362784  0.55564960    -0.60610
H599        H  0.71810523  0.35187162  0.53068564     0.43420
H600        H  0.87693522  0.46736495  0.58270321     0.43380
C601        C  0.58715554  0.20323285  0.59915514    -0.05680
C602        C  0.58349309  0.16511430  0.57282983    -0.33110
C603        C  0.55565314  0.16381830  0.53633400     0.36140
C604        C  0.53131810  0.20085348  0.52633464    -0.06040
C605        C  0.53507025  0.23876877  0.55272323    -0.33010
C606        C  0.56235942  0.24006120  0.58910278     0.36040
H607        H  0.60295699  0.13689053  0.57977379     0.16410
O608        O  0.55128920  0.12599040  0.51167827    -0.60510
H609        H  0.51556115  0.26702063  0.54600382     0.16430
O610        O  0.56469357  0.27760076  0.61468609    -0.60610
H611        H  0.54512668  0.27292520  0.64016339     0.43420
H612        H  0.57699375  0.12388066  0.49319425     0.43380
C613        C  0.60074211  0.37569510  0.70448778    -0.05680
C614        C  0.57289732  0.38167035  0.74062847    -0.33110
C615        C  0.53817026  0.40890952  0.73644886     0.36140
C616        C  0.53098232  0.43183486  0.69598483    -0.06040
C617        C  0.55918871  0.42722242  0.66013369    -0.33010
C618        C  0.59382197  0.39930536  0.66403069     0.36040
H619        H  0.57733622  0.36433852  0.77216859     0.16410
O620        O  0.51201579  0.41409082  0.77274915    -0.60510
H621        H  0.55387473  0.44467148  0.62882349     0.16430
O622        O  0.62028488  0.39506681  0.62790340    -0.60610
H623        H  0.64220237  0.41749550  0.63281110     0.43420
H624        H  0.49531361  0.38676560  0.77398957     0.43380
C625        C  0.38903442  0.19761899  0.58170331    -0.05680
C626        C  0.39656464  0.23338739  0.55283125    -0.33110
C627        C  0.42938332  0.23286332  0.52234347     0.36140
C628        C  0.45496875  0.19573312  0.51951341    -0.06040
C629        C  0.44666850  0.15908305  0.54658809    -0.33010
C630        C  0.41402590  0.15980797  0.57778119     0.36040
H631        H  0.37839304  0.26323909  0.55525678     0.16410
O632        O  0.43902862  0.27045349  0.49917241    -0.60510
H633        H  0.46680478  0.13060251  0.54493952     0.16430
O634        O  0.40753326  0.12390519  0.60466579    -0.60610
H635        H  0.42757599  0.12708689  0.62999322     0.43420
H636        H  0.41464948  0.27646356  0.47951151     0.43380
C637        C  0.19946585  0.39158250  0.60295413    -0.05680
C638        C  0.23154392  0.41931327  0.58819787    -0.33110
C639        C  0.22716039  0.44344469  0.54850394     0.36140
C640        C  0.19030779  0.43961263  0.52304793    -0.06040
C641        C  0.15700208  0.41475183  0.53967604    -0.33010
C642        C  0.16121233  0.39102602  0.57969886     0.36040
H643        H  0.26127507  0.41966123  0.60561156     0.16410
O644        O  0.26063594  0.46641355  0.53206787    -0.60510
H645        H  0.12871078  0.41145070  0.51994695     0.16430
O646        O  0.12984288  0.36316158  0.59244147    -0.60610
H647        H  0.11196227  0.38067396  0.61300967     0.43420
H648        H  0.26544926  0.49050206  0.55403339     0.43380
C649        C  0.45272345  0.43378622  0.69178220    -0.05680
C650        C  0.42728735  0.43484704  0.73027840    -0.33110
C651        C  0.39271076  0.40720826  0.73392872     0.36140
C652        C  0.38296147  0.37754561  0.69866197    -0.06040
C653        C  0.40732764  0.37815888  0.65915945    -0.33010
C654        C  0.44220506  0.40563276  0.65582474     0.36040
H655        H  0.43523959  0.45597354  0.75845553     0.16410
O656        O  0.36940694  0.40872503  0.77275670    -0.60510
H657        H  0.40047678  0.35596261  0.63149456     0.16430
O658        O  0.46607375  0.40459224  0.61738833    -0.60610
H659        H  0.48443829  0.37864984  0.62080627     0.43420
H660        H  0.34644057  0.42952857  0.76621866     0.43380
C661        C  0.94903308  0.93749476  0.75545824    -0.05680
C662        C  0.92108533  0.93137316  0.79138690    -0.33110
C663        C  0.89105257  0.89816270  0.78991010     0.36140
C664        C  0.88862146  0.87034166  0.75185173    -0.06040
C665        C  0.91846404  0.87480084  0.71732823    -0.33010
C666        C  0.94851455  0.90795464  0.71889670     0.36040
H667        H  0.92102785  0.95412963  0.81957971     0.16410
O668        O  0.86284812  0.89499893  0.82458929    -0.60510
H669        H  0.91749323  0.85365824  0.68786033     0.16430
O670        O  0.97407032  0.91414998  0.68231115    -0.60610
H671        H  0.99230320  0.88790257  0.68111493     0.43420
H672        H  0.83968825  0.91496220  0.81626673     0.43380
C673        C  0.94501697  0.01896121  0.74752328    -0.05680
C674        C  0.93867182  0.04812141  0.78355380    -0.33110
C675        C  0.90800144  0.08087304  0.78072753     0.36140
C676        C  0.88373966  0.08509322  0.74103875    -0.06040
C677        C  0.89146720  0.05668046  0.70463266    -0.33010
C678        C  0.92123062  0.02357700  0.70787918     0.36040
H679        H  0.95647135  0.04446836  0.81443194     0.16410
O680        O  0.90245060  0.10879606  0.81662042    -0.60510
H681        H  0.87347741  0.05914159  0.67374798     0.16430
O682        O  0.92711013  0.99587135  0.67184158    -0.60610
H683        H  0.90239343  0.97634021  0.67153370     0.43420
H684        H  0.88425531  0.09272696  0.83800090     0.43380
C685        C  0.03730730  0.02442798  0.75139249    -0.05680
C686        C  0.06454981  0.03354140  0.78719098    -0.33110
C687        C  0.09622035  0.06466831  0.78268557     0.36140
C688        C  0.10101991  0.08775510  0.74162424    -0.06040
C689        C  0.07202049  0.08026650  0.70670523    -0.33010
C690        C  0.04037718  0.04893012  0.71135622     0.36040
H691        H  0.06294594  0.01427570  0.81786285     0.16410
O692        O  0.12339687  0.07053173  0.81798641    -0.60510
H693        H  0.07460948  0.09767305  0.67497642     0.16430
O694        O  0.01524513  0.03954062  0.67511603    -0.60610
H695        H  0.99625714  0.06505231  0.67232690     0.43420
H696        H  0.14567598  0.04842883  0.81326228     0.43380
C697        C  0.20124296  0.58684657  0.57826948    -0.05680
C698        C  0.22988630  0.58616036  0.54212884    -0.33110
C699        C  0.22415296  0.55931566  0.50467060     0.36140
C700        C  0.18929888  0.53163679  0.50219109    -0.06040
C701        C  0.15957919  0.53300077  0.53722370    -0.33010
C702        C  0.16549780  0.56005938  0.57528386     0.36040
H703        H  0.25778464  0.60605430  0.54274334     0.16410
O704        O  0.25475759  0.55790435  0.47233915    -0.60510
H705        H  0.13241883  0.51197607  0.53565286     0.16430
O706        O  0.13652072  0.55952010  0.60930984    -0.60610
H707        H  0.14558032  0.53568424  0.62981712     0.43420
H708        H  0.24974652  0.58388686  0.45300396     0.43380
C709        C  0.39712731  0.77233135  0.59253174    -0.05680
C710        C  0.42417377  0.73757279  0.58236485    -0.33110
C711        C  0.45538158  0.74188005  0.54972658     0.36140
C712        C  0.45928242  0.78090746  0.52460509    -0.06040
C713        C  0.43187414  0.81577657  0.53407323    -0.33010
C714        C  0.40110303  0.81178691  0.56800078     0.36040
H715        H  0.42145202  0.70678973  0.60033207     0.16410
O716        O  0.48154725  0.70711312  0.54171400    -0.60510
H717        H  0.43511029  0.84644029  0.51605511     0.16430
O718        O  0.37491233  0.84635604  0.57652087    -0.60610
H719        H  0.35035664  0.84136439  0.55681263     0.43420
H720        H  0.50022303  0.70571994  0.56839318     0.43380
C721        C  0.45354134  0.52830980  0.69468976    -0.05680
C722        C  0.44389675  0.54689608  0.73656645    -0.33110
C723        C  0.40880770  0.57330563  0.74186858     0.36140
C724        C  0.38355882  0.58356748  0.70406421    -0.06040
C725        C  0.39226518  0.56308785  0.66240527    -0.33010
C726        C  0.42669803  0.53498621  0.65776594     0.36040
H727        H  0.46400546  0.54105008  0.76537333     0.16410
O728        O  0.40084274  0.59043987  0.78389310    -0.60510
H729        H  0.37280417  0.56933258  0.63320635     0.16430
O730        O  0.43461184  0.51507795  0.61700167    -0.60610
H731        H  0.44245002  0.53899969  0.59604433     0.43420
H732        H  0.38363763  0.56802352  0.79937394     0.43380
C733        C  0.10215076  0.87684794  0.73875937    -0.05680
C734        C  0.07923345  0.88127314  0.77917420    -0.33110
C735        C  0.04867511  0.91400540  0.78376200     0.36140
C736        C  0.04112827  0.94300026  0.74787239    -0.06040
C737        C  0.06360583  0.93830417  0.70762318    -0.33010
C738        C  0.09342587  0.90553742  0.70259552     0.36040
H739        H  0.08520327  0.85959738  0.80737755     0.16410
O740        O  0.02809924  0.91897328  0.82406074    -0.60510
H741        H  0.05837686  0.96074195  0.67988679     0.16430
O742        O  0.11542853  0.90360448  0.66289789    -0.60610
H743        H  0.09733271  0.88714871  0.64161603     0.43420
H744        H  0.00628215  0.89595763  0.82401727     0.43380
C745        C  0.03937240  0.67893146  0.92322967    -0.05680
C746        C  0.03589184  0.71642908  0.89591823    -0.33110
C747        C  0.06182303  0.72231540  0.85826806     0.36140
C748        C  0.09147485  0.69009160  0.84647007    -0.06040
C749        C  0.09289034  0.65116051  0.87171101    -0.33010
C750        C  0.06766983  0.64582859  0.91025093     0.36040
H751        H  0.01527962  0.74286169  0.90581847     0.16410
O752        O  0.05948747  0.76085033  0.83462617    -0.60510
H753        H  0.11560242  0.62610784  0.86341815     0.16430
O754        O  0.07167347  0.60863457  0.93580074    -0.60610
H755        H  0.09535507  0.61452950  0.95648681     0.43420
H756        H  0.03960733  0.75498263  0.80967589     0.43380
C757        C  0.94892167  0.68444195  0.93166697    -0.05680
C758        C  0.93096500  0.72548701  0.92429877    -0.33110
C759        C  0.90387316  0.73260292  0.88823210     0.36140
C760        C  0.89326437  0.69780967  0.85847003    -0.06040
C761        C  0.91254898  0.65676590  0.86496904    -0.33010
C762        C  0.94045810  0.65007130  0.90114948     0.36040
H763        H  0.93808134  0.75255367  0.94678122     0.16410
O764        O  0.88850749  0.77417895  0.88211285    -0.60510
H765        H  0.90517400  0.62953173  0.84281573     0.16430
O766        O  0.95784910  0.60950953  0.90755730    -0.60610
H767        H  0.98148452  0.60801276  0.88601888     0.43420
H768        H  0.86978488  0.77964131  0.90820556     0.43380
C769        C  0.68252135  0.93258063  0.93886461    -0.05680
C770        C  0.64922881  0.92197376  0.90984231    -0.33110
C771        C  0.65580672  0.89621369  0.87091297     0.36140
C772        C  0.69629466  0.88120954  0.86041167    -0.06040
C773        C  0.72934842  0.89304414  0.88933334    -0.33010
C774        C  0.72271032  0.91760672  0.92823379     0.36040
H775        H  0.61821675  0.93405792  0.91725025     0.16410
O776        O  0.62262386  0.88612835  0.84361790    -0.60510
H777        H  0.76105609  0.88288816  0.88227274     0.16430
O778        O  0.75633283  0.92859559  0.95449971    -0.60610
H779        H  0.76333194  0.90161711  0.97154025     0.43420
H780        H  0.61066794  0.85890275  0.85645203     0.43380
C781        C  0.68459288  0.02119673  0.92128278    -0.05680
C782        C  0.65308061  0.02795515  0.88918126    -0.33110
C783        C  0.66195905  0.05037783  0.84904297     0.36140
C784        C  0.70293095  0.06549286  0.84082712    -0.06040
C785        C  0.73509317  0.05250971  0.87022396    -0.33010
C786        C  0.72604619  0.03139573  0.91057946     0.36040
H787        H  0.62113435  0.01947859  0.89712368     0.16410
O788        O  0.62970826  0.06119848  0.82080320    -0.60510
H789        H  0.76708438  0.06217806  0.86406710     0.16430
O790        O  0.75752360  0.02359627  0.94091928    -0.60610
H791        H  0.75995373  0.05087627  0.95904419     0.43420
H792        H  0.62836790  0.03698511  0.79842635     0.43380
C793        C  0.95118709  0.25655070  0.91853518    -0.05680
C794        C  0.92652106  0.29376309  0.91077028    -0.33110
C795        C  0.89974466  0.29542494  0.87364106     0.36140
C796        C  0.89711083  0.25916425  0.84450296    -0.06040
C797        C  0.92346230  0.22305670  0.85085136    -0.33010
C798        C  0.95059270  0.22152478  0.88759930     0.36040
H799        H  0.92684247  0.32076638  0.93464439     0.16410
O800        O  0.87327982  0.33041559  0.86887722    -0.60510
H801        H  0.92121201  0.19484779  0.82865951     0.16430
O802        O  0.97318859  0.18410336  0.89553898    -0.60610
H803        H  0.99109445  0.17991288  0.86853735     0.43420
H804        H  0.88854343  0.35152055  0.84957563     0.43380
C805        C  0.04084882  0.25472797  0.92176201    -0.05680
C806        C  0.06097179  0.21530392  0.91267539    -0.33110
C807        C  0.08625227  0.21091359  0.87514955     0.36140
C808        C  0.09320346  0.24737333  0.84640309    -0.06040
C809        C  0.07163065  0.28668491  0.85472185    -0.33010
C810        C  0.04501603  0.29032723  0.89208428     0.36040
H811        H  0.05679476  0.18739710  0.93481869     0.16410
O812        O  0.10400125  0.17062396  0.86718672    -0.60510
H813        H  0.07639913  0.31497049  0.83329992     0.16430
O814        O  0.02507629  0.32922330  0.90076682    -0.60610
H815        H  0.00342744  0.33185685  0.87700519     0.43420
H816        H  0.12700902  0.16799858  0.88944297     0.43380
C817        C  0.31515057  0.02408874  0.92216991    -0.05680
C818        C  0.27858946  0.04879147  0.92362622    -0.33110
C819        C  0.26873032  0.07783378  0.88928494     0.36140
C820        C  0.29603539  0.08306408  0.85203155    -0.06040
C821        C  0.33454536  0.06111527  0.85249344    -0.33010
C822        C  0.34410340  0.03161937  0.88723291     0.36040
H823        H  0.25538287  0.04278259  0.94936187     0.16410
O824        O  0.23079838  0.09856144  0.89126785    -0.60510
H825        H  0.35640017  0.06520360  0.82493019     0.16430
O826        O  0.38053174  0.00820610  0.88516271    -0.60610
H827        H  0.39950460  0.02280299  0.90695847     0.43420
H828        H  0.23216798  0.11806274  0.91812250     0.43380
C829        C  0.30650996  0.94396870  0.92186448    -0.05680
C830        C  0.33829601  0.91816741  0.90314954    -0.33110
C831        C  0.32950305  0.88834955  0.86816258     0.36140
C832        C  0.28822581  0.88350161  0.85221211    -0.06040
C833        C  0.25642150  0.90821217  0.87222107    -0.33010
C834        C  0.26531452  0.93885659  0.90583014     0.36040
H835        H  0.37019068  0.92252869  0.91429485     0.16410
O836        O  0.36126406  0.86357613  0.85048526    -0.60510
H837        H  0.22447183  0.90479246  0.86083455     0.16430
O838        O  0.23336544  0.96366119  0.92327368    -0.60610
H839        H  0.22281932  0.98161252  0.89780354     0.43420
H840        H  0.37472604  0.88256386  0.82758975     0.43380
C841        C  0.45437426  0.78164165  0.42227584    -0.05680
C842        C  0.44755064  0.81246948  0.38778575    -0.33110
C843        C  0.41683595  0.80595538  0.35461357     0.36140
C844        C  0.39197160  0.76771495  0.35515370    -0.06040
C845        C  0.39775783  0.73783082  0.39084502    -0.33010
C846        C  0.42846916  0.74441435  0.42398254     0.36040
H847        H  0.46766155  0.84087623  0.38522069     0.16410
O848        O  0.41333305  0.83596349  0.32040194    -0.60510
H849        H  0.37919600  0.70823959  0.39258892     0.16430
O850        O  0.43551891  0.71207832  0.45512000    -0.60610
H851        H  0.40986918  0.71078875  0.47379026     0.43420
H852        H  0.39471284  0.85918364  0.33241906     0.43380
C853        C  0.20442754  0.56526681  0.33934435    -0.05680
C854        C  0.16655684  0.56898640  0.36283069    -0.33110
C855        C  0.15941830  0.54483117  0.40226450     0.36140
C856        C  0.18953250  0.51496334  0.41791250    -0.06040
C857        C  0.22579596  0.50818239  0.39211372    -0.33010
C858        C  0.23361542  0.53350257  0.35346090     0.36040
H859        H  0.14378864  0.59333321  0.35278583     0.16410
O860        O  0.12362860  0.55202199  0.42655515    -0.60510
H861        H  0.24970431  0.48598242  0.40408088     0.16430
O862        O  0.27090161  0.52876324  0.33132255    -0.60610
H863        H  0.26543001  0.50705326  0.30703683     0.43420
H864        H  0.12891551  0.57914254  0.44422143     0.43380
C865        C  0.45640535  0.52675379  0.20794189    -0.05680
C866        C  0.44413281  0.54346097  0.25019558    -0.33110
C867        C  0.40997533  0.57205900  0.25435718     0.36140
C868        C  0.38762554  0.58546027  0.21557800    -0.06040
C869        C  0.39967997  0.56778081  0.17335636    -0.33010
C870        C  0.43361094  0.53889406  0.16943261     0.36040
H871        H  0.46109930  0.53428573  0.28030875     0.16410
O872        O  0.39977148  0.58769905  0.29640915    -0.60510
H873        H  0.38316602  0.57681904  0.14284804     0.16430
O874        O  0.44467182  0.52318792  0.12764986    -0.60610
H875        H  0.46173687  0.54670940  0.11385731     0.43420
H876        H  0.38055818  0.56554130  0.30927780     0.43380
C877        C  0.29264524  0.87822449  0.08912283    -0.05680
C878        C  0.32768610  0.90552749  0.09438490    -0.33110
C879        C  0.33713425  0.93789560  0.06225871     0.36140
C880        C  0.31170097  0.94341343  0.02382499    -0.06040
C881        C  0.27802135  0.91475391  0.01769655    -0.33010
C882        C  0.26896845  0.88205091  0.04900449     0.36040
H883        H  0.34701273  0.90302800  0.12428090     0.16410
O884        O  0.37077727  0.96481937  0.06924064    -0.60510
H885        H  0.25646246  0.91919087  0.99029643     0.16430
O886        O  0.23557649  0.85528955  0.04051976    -0.60610
H887        H  0.24716147  0.83007339  0.02341632     0.43420
H888        H  0.36138748  0.98672752  0.09188622     0.43380
C889        C  0.09712434  0.69428259  0.08736557    -0.05680
C890        C  0.10189965  0.72042397  0.04865823    -0.33110
C891        C  0.07718138  0.71468668  0.01048085     0.36140
C892        C  0.04604999  0.68212238  0.00954283    -0.06040
C893        C  0.04139009  0.65506007  0.04782472    -0.33010
C894        C  0.06642949  0.66110304  0.08661132     0.36040
H895        H  0.12527018  0.74593033  0.04742287     0.16410
O896        O  0.08259281  0.74293998  0.97501648    -0.60510
H897        H  0.01816673  0.62931625  0.04774992     0.16430
O898        O  0.06040616  0.63462035  0.12337346    -0.60610
H899        H  0.03915573  0.64989424  0.14198623     0.43420
H900        H  0.10810360  0.73262382  0.95928000     0.43380
C901        C  0.79438386  0.58466245  0.35289869    -0.05680
C902        C  0.82621145  0.55367271  0.34622133    -0.33110
C903        C  0.83462625  0.52151660  0.37891459     0.36140
C904        C  0.81121371  0.51980376  0.41935200    -0.06040
C905        C  0.78068103  0.55199408  0.42641529    -0.33010
C906        C  0.77303587  0.58467265  0.39465466     0.36040
H907        H  0.84365618  0.55319520  0.31488561     0.16410
O908        O  0.86529061  0.49120098  0.37059167    -0.60510
H909        H  0.76061577  0.55107598  0.45530511     0.16430
O910        O  0.74341156  0.61563180  0.40457763    -0.60610
H911        H  0.75896972  0.64032408  0.41845473     0.43420
H912        H  0.85356886  0.47114811  0.34739760     0.43380
C913        C  0.53234712  0.77842951  0.41897773    -0.05680
C914        C  0.55475042  0.81483186  0.40296260    -0.33110
C915        C  0.58530790  0.80993410  0.36893554     0.36140
C916        C  0.59440738  0.76799500  0.35093637    -0.06040
C917        C  0.57252791  0.73173968  0.36799722    -0.33010
C918        C  0.54141223  0.73677847  0.40077562     0.36040
H919        H  0.54756425  0.84725467  0.41579170     0.16410
O920        O  0.60672949  0.84613091  0.35441686    -0.60510
H921        H  0.57877322  0.69915154  0.35499019     0.16430
O922        O  0.51984411  0.70053358  0.41499991    -0.60610
H923        H  0.50047338  0.69328672  0.38994401     0.43420
H924        H  0.58895051  0.85928022  0.33062151     0.43380
C925        C  0.60353362  0.58305955  0.20908932    -0.05680
C926        C  0.58782566  0.56419846  0.24908270    -0.33110
C927        C  0.55419384  0.53456535  0.24795049     0.36140
C928        C  0.53526851  0.52346556  0.20653267    -0.06040
C929        C  0.55192828  0.54042787  0.16657733    -0.33010
C930        C  0.58549694  0.56980604  0.16740252     0.36040
H931        H  0.60105075  0.57303283  0.28152882     0.16410
O932        O  0.53932111  0.51766430  0.28765472    -0.60510
H933        H  0.53782952  0.53200758  0.13443432     0.16430
O934        O  0.59980355  0.58576659  0.12699407    -0.60610
H935        H  0.58096205  0.61049055  0.11949929     0.43420
H936        H  0.55470777  0.48978695  0.29191583     0.43380
C937        C  0.95344442  0.68399112  0.01671291    -0.05680
C938        C  0.92634397  0.65063208  0.03087507    -0.33110
C939        C  0.89953277  0.65674670  0.06793501     0.36140
C940        C  0.89840172  0.69740483  0.09089177    -0.06040
C941        C  0.92633739  0.73042462  0.07735260    -0.33010
C942        C  0.95400451  0.72379145  0.04106084     0.36040
H943        H  0.92499494  0.62012534  0.01208619     0.16410
O944        O  0.87212318  0.62399249  0.07894133    -0.60510
H945        H  0.92608562  0.76193904  0.09432801     0.16430
O946        O  0.97931991  0.75751634  0.02755773    -0.60610
H947        H  0.00179904  0.75898552  0.05051826     0.43420
H948        H  0.88785798  0.60432863  0.09941080     0.43380
C949        C  0.70399270  0.89452681  0.10030077    -0.05680
C950        C  0.66420811  0.89156588  0.08049709    -0.33110
C951        C  0.65436620  0.91546659  0.04150167     0.36140
C952        C  0.68383266  0.94415163  0.02261404    -0.06040
C953        C  0.72268853  0.94923159  0.04407196    -0.33010
C954        C  0.73294608  0.92453978  0.08235787     0.36040
H955        H  0.64155692  0.86847081  0.09347602     0.16410
O956        O  0.61618615  0.90988793  0.02144433    -0.60510
H957        H  0.74565293  0.97141464  0.03010980     0.16430
O958        O  0.77189452  0.92882364  0.10094729    -0.60610
H959        H  0.76880334  0.95135212  0.12493867     0.43420
H960        H  0.61921004  0.88352119  0.00203073     0.43380
C961        C  0.53849349  0.21101689  0.42824244    -0.05680
C962        C  0.55920741  0.25150750  0.42759339    -0.33110
C963        C  0.59383941  0.25775754  0.39940536     0.36140
C964        C  0.60831692  0.22279796  0.37227392    -0.06040
C965        C  0.58803808  0.18192696  0.37483572    -0.33010
C966        C  0.55336633  0.17605303  0.40222859     0.36040
H967        H  0.54740882  0.27869529  0.44746856     0.16410
O968        O  0.61298309  0.29793580  0.39853666    -0.60510
H969        H  0.59790563  0.15447597  0.35414422     0.16430
O970        O  0.53242277  0.13681748  0.40120924    -0.60610
H971        H  0.55115626  0.11536750  0.41601234     0.43420
H972        H  0.59628376  0.31580204  0.37720994     0.43380
C973        C  0.78606742  0.35875541  0.38003507    -0.05680
C974        C  0.82677928  0.36655877  0.39604741    -0.33110
C975        C  0.83636440  0.40529392  0.41980100     0.36140
C976        C  0.80562614  0.43767580  0.42573850    -0.06040
C977        C  0.76518222  0.42977789  0.41058494    -0.33010
C978        C  0.75478295  0.39053966  0.38923208     0.36040
H979        H  0.85128780  0.34287780  0.38982280     0.16410
O980        O  0.87608848  0.41206497  0.43535171    -0.60510
H981        H  0.74104365  0.45405623  0.41637999     0.16430
O982        O  0.71370951  0.38355433  0.37810171    -0.60610
H983        H  0.70537185  0.40835736  0.35845237     0.43420
H984        H  0.87725194  0.39694128  0.46493908     0.43380
C985        C  0.59076829  0.35869017  0.20110554    -0.05680
C986        C  0.56564624  0.36768128  0.23883036    -0.33110
C987        C  0.53570454  0.40090701  0.23765805     0.36140
C988        C  0.53090079  0.42679446  0.19871403    -0.06040
C989        C  0.55696726  0.41914845  0.16139976    -0.33010
C990        C  0.58665570  0.38519150  0.16230227     0.36040
H991        H  0.56877620  0.34834697  0.26931777     0.16410
O992        O  0.51081470  0.40770584  0.27473783    -0.60510
H993        H  0.55316979  0.43841265  0.13098101     0.16430
O994        O  0.61160963  0.37845403  0.12531479    -0.60610
H995        H  0.63687338  0.39637727  0.13095872     0.43420
H996        H  0.49074410  0.38297602  0.27479347     0.43380
C997        C  0.67271633  0.04604812  0.00258341    -0.05680
C998        C  0.67473902  0.03960385  0.04977217    -0.33110
C999        C  0.68615457  0.07363310  0.07898582     0.36140
C1000       C  0.69236159  0.11605356  0.06215576    -0.06040
C1001       C  0.68292060  0.12485675  0.01733356    -0.33010
C1002       C  0.67243153  0.09081063  0.98781765     0.36040
H1003       H  0.66774662  0.00885385  0.06538108     0.16410
O1004       O  0.69152660  0.06496300  0.12409238    -0.60510
H1005       H  0.68471476  0.15814531  0.00476438     0.16430
O1006       O  0.66195600  0.10248083  0.94464832    -0.60610
H1007       H  0.63121570  0.10591079  0.94502148     0.43420
H1008       H  0.66420857  0.07145832  0.13829156     0.43380
C1009       C  0.94847567  0.24838931  0.00244333    -0.05680
C1010       C  0.94359963  0.28395173  0.03172809    -0.33110
C1011       C  0.91317354  0.28298549  0.06536272     0.36140
C1012       C  0.88719071  0.24573311  0.07001275    -0.06040
C1013       C  0.89408440  0.20916086  0.04207713    -0.33010
C1014       C  0.92444253  0.21035399  0.00847860     0.36040
H1015       H  0.96213891  0.31329807  0.02714942     0.16410
O1016       O  0.90919175  0.31867579  0.09333432    -0.60510
H1017       H  0.87508314  0.17997951  0.04523975     0.16430
O1018       O  0.92926275  0.17480114  0.98051380    -0.60610
H1019       H  0.95234036  0.15756221  0.99393207     0.43420
H1020       H  0.89234340  0.34014743  0.07605880     0.43380
C1021       C  0.20521038  0.34283346  0.38909366    -0.05680
C1022       C  0.16782174  0.36693867  0.38710727    -0.33110
C1023       C  0.16257178  0.40512133  0.41322068     0.36140
C1024       C  0.19486639  0.41947503  0.44173559    -0.06040
C1025       C  0.23184922  0.39511096  0.44403154    -0.33010
C1026       C  0.23722130  0.35724788  0.41825874     0.36040
H1027       H  0.14314936  0.35694295  0.36430770     0.16410
O1028       O  0.12542014  0.42728271  0.41185164    -0.60510
H1029       H  0.25668075  0.40511572  0.46658382     0.16430
O1030       O  0.27357497  0.33384315  0.42267606    -0.60610
H1031       H  0.29541737  0.35190679  0.40804376     0.43420
H1032       H  0.12767654  0.44710985  0.38547298     0.43380
C1033       C  0.38983726  0.21861242  0.36583549    -0.05680
C1034       C  0.39778951  0.17914271  0.38881449    -0.33110
C1035       C  0.43274981  0.17461745  0.41660450     0.36140
C1036       C  0.46052267  0.20985123  0.42172611    -0.06040
C1037       C  0.45319264  0.24900788  0.39828971    -0.33010
C1038       C  0.41811015  0.25373892  0.37075386     0.36040
H1039       H  0.37702047  0.15137925  0.38502123     0.16410
O1040       O  0.44077469  0.13504041  0.43679589    -0.60510
H1041       H  0.47455944  0.27629227  0.40181139     0.16430
O1042       O  0.41231164  0.29254546  0.34829201    -0.60610
H1043       H  0.42729087  0.28899900  0.31918987     0.43420
H1044       H  0.41756797  0.13026171  0.45836114     0.43380
C1045       C  0.38933212  0.36636790  0.19529382    -0.05680
C1046       C  0.41575435  0.36825839  0.15750424    -0.33110
C1047       C  0.44762311  0.39979182  0.15490442     0.36140
C1048       C  0.45347272  0.43035200  0.19031544    -0.06040
C1049       C  0.42539093  0.43038741  0.22636945    -0.33010
C1050       C  0.39340884  0.39951029  0.22884644     0.36040
H1051       H  0.41284476  0.34429283  0.13060942     0.16410
O1052       O  0.47339203  0.40013358  0.11791100    -0.60510
H1053       H  0.42979885  0.45261765  0.25453628     0.16430
O1054       O  0.36760677  0.40118110  0.26566570    -0.60610
H1055       H  0.34661166  0.42395827  0.25832381     0.43420
H1056       H  0.48980344  0.37262046  0.11968011     0.43380
C1057       C  0.04009514  0.25441368  0.00584147    -0.05680
C1058       C  0.04494473  0.21415802  0.02810028    -0.33110
C1059       C  0.07561534  0.20902291  0.06142719     0.36140
C1060       C  0.10184832  0.24454802  0.07269941    -0.06040
C1061       C  0.09507508  0.28532980  0.05186439    -0.33010
C1062       C  0.06487452  0.29021792  0.01846370     0.36040
H1063       H  0.02637896  0.18615013  0.01797753     0.16410
O1064       O  0.08021163  0.16903918  0.08186567    -0.60510
H1065       H  0.11439111  0.31337048  0.06007282     0.16430
O1066       O  0.06049000  0.32991170  0.99729630    -0.60610
H1067       H  0.08401768  0.33159166  0.97562674     0.43420
H1068       H  0.06197248  0.17029245  0.10889382     0.43380
C1069       C  0.30803509  0.02614846  0.02007552    -0.05680
C1070       C  0.33821261  0.05954479  0.02197396    -0.33110
C1071       C  0.32959228  0.09957979  0.04407393     0.36140
C1072       C  0.28983932  0.10706222  0.06323130    -0.06040
C1073       C  0.25960526  0.07385624  0.05941290    -0.33010
C1074       C  0.26865052  0.03370334  0.03933769     0.36040
H1075       H  0.36846707  0.05439549  0.00660987     0.16410
O1076       O  0.35976229  0.13135342  0.04570447    -0.60510
H1077       H  0.22858221  0.07828537  0.07298943     0.16430
O1078       O  0.23777464  0.00271177  0.03650096    -0.60610
H1079       H  0.23687401  0.98877691  0.06673260     0.43420
H1080       H  0.37789233  0.12320145  0.07149354     0.43380
C1081       C  0.10120899  0.88131996  0.23348540    -0.05680
C1082       C  0.10057793  0.90918853  0.27138081    -0.33110
C1083       C  0.07181324  0.94358145  0.27506218     0.36140
C1084       C  0.04167676  0.95051362  0.24115440    -0.06040
C1085       C  0.04144605  0.92216558  0.20348896    -0.33010
C1086       C  0.07083563  0.88784903  0.19949403     0.36040
H1087       H  0.12332698  0.90508246  0.29810655     0.16410
O1088       O  0.07323652  0.97019976  0.31244323    -0.60510
H1089       H  0.01921487  0.92741246  0.17649064     0.16430
O1090       O  0.06956685  0.86107082  0.16223252    -0.60610
H1091       H  0.05119210  0.83635067  0.17090425     0.43420
H1092       H  0.09794046  0.98925377  0.30797015     0.43380
C1093       C  0.88881703  0.87951180  0.22621584    -0.05680
C1094       C  0.91547544  0.88295811  0.26402505    -0.33110
C1095       C  0.94450200  0.91735208  0.26797032     0.36140
C1096       C  0.94709575  0.94945805  0.23408193    -0.06040
C1097       C  0.92138693  0.94538670  0.19583245    -0.33010
C1098       C  0.89280571  0.91085838  0.19149495     0.36040
H1099       H  0.91329901  0.85936739  0.29121152     0.16410
O1100       O  0.96811738  0.92096545  0.30642967    -0.60510
H1101       H  0.92264497  0.96983120  0.16948019     0.16430
O1102       O  0.86702549  0.90994863  0.15452446    -0.60610
H1103       H  0.88331862  0.89503446  0.13050708     0.43420
H1104       H  0.98995654  0.89811276  0.30353355     0.43380
C1105       C  0.94798699  0.03235196  0.24124171    -0.05680
C1106       C  0.92660287  0.04453505  0.28080801    -0.33110
C1107       C  0.90171063  0.08250310  0.28206906     0.36140
C1108       C  0.89714507  0.10831100  0.24299613    -0.06040
C1109       C  0.91963056  0.09668993  0.20392849    -0.33010
C1110       C  0.94472517  0.05910159  0.20277629     0.36040
H1111       H  0.92873047  0.02408143  0.31058902     0.16410
O1112       O  0.87959794  0.09214818  0.32046608    -0.60510
H1113       H  0.91654069  0.11607389  0.17346801     0.16430
O1114       O  0.96531691  0.04821574  0.16366726    -0.60610
H1115       H  0.94331425  0.04070223  0.14141667     0.43420
H1116       H  0.89838233  0.11093700  0.33876428     0.43380
C1117       C  0.08792754  0.10957966  0.23342093    -0.05680
C1118       C  0.06882162  0.09856222  0.27473324    -0.33110
C1119       C  0.04318593  0.06119424  0.27823173     0.36140
C1120       C  0.03764873  0.03344096  0.24055245    -0.06040
C1121       C  0.05488300  0.04540608  0.19914042    -0.33010
C1122       C  0.07895247  0.08322699  0.19495228     0.36040
H1123       H  0.07477507  0.11800899  0.30471994     0.16410
O1124       O  0.02575527  0.05062886  0.31908156    -0.60510
H1125       H  0.04987405  0.02490851  0.16964608     0.16430
O1126       O  0.09375982  0.09373153  0.15283440    -0.60610
H1127       H  0.11630403  0.07231443  0.14650368     0.43420
H1128       H  0.00333169  0.07250782  0.32397562     0.43380
loop_ 
_geom_bond_atom_site_label_1 
_geom_bond_atom_site_label_2 
_geom_bond_distance 
_geom_bond_site_symmetry_2 
_ccdc_geom_bond_type 
C1            C2   1.370   1_455  D
C1         C1084   1.504       .  S
C1         C1120   1.492   1_565  S
C2         C1096   1.497       .  S
C2         C1105   1.496   1_565  S
Zr3           O4   2.440       .  S
Zr3           O5   2.430       .  S
Zr3           O6   2.405       .  S
Zr3           O9   2.403       .  S
Zr3          O11   2.376       .  S
Zr3          O12   2.376       .  S
Zr3          O13   2.398       .  S
Zr3          O14   2.389       .  S
O4           H60   0.990       .  S
O4           H68   0.990       .  S
O5           C25   1.283       .  A
O6           C27   1.278       .  A
O7          Zr17   2.474       .  S
O7           C26   1.294       .  A
O8          Zr16   2.457       .  S
O8           C27   1.288       .  A
O9           C26   1.279       .  A
O10         Zr18   2.411       .  S
O10          C25   1.280       .  A
O11         Zr16   2.404       .  S
O11         Zr18   2.379       .  S
O12         Zr17   2.395       .  S
O12         Zr18   2.381       .  S
O12          H47   0.966       .  S
O13         Zr16   2.407       .  S
O13         Zr33   2.383       .  S
O13          H50   0.965       .  S
O14         Zr17   2.387       .  S
O14         Zr33   2.382       .  S
Zr15         O40   2.445       .  S
Zr15         O34   2.435       .  S
Zr15         O42   2.414       .  S
Zr15         O30   2.400       .  S
Zr15         O21   2.389       .  S
Zr15         O22   2.398       .  S
Zr15         O23   2.370       .  S
Zr15         O24   2.379       .  S
Zr16         O35   2.435       .  S
Zr16         O28   2.435       .  S
Zr16         O29   2.475       .  S
Zr16         O22   2.397       .  S
Zr16         O23   2.390       .  S
Zr17         O19   2.435       .  S
Zr17         O41   2.439       .  S
Zr17         O43   2.463       .  S
Zr17         O21   2.391       .  S
Zr17         O24   2.398       .  S
Zr18         O44   2.436       .  S
Zr18         O45   2.437       .  S
Zr18         O20   2.437       .  S
Zr18         O21   2.385       .  S
Zr18         O22   2.393       .  S
O19          H56   0.990       .  S
O20          H51   0.990       .  S
O20          H65   0.990       .  S
O22          H48   0.965       .  S
O23         Zr33   2.374       .  S
O24         Zr33   2.379       .  S
O24          H49   0.966       .  S
C25        C1033   1.480       .  S
C26        C1045   1.497       .  S
C27        C1021   1.480       .  S
O28          H64   0.990       .  S
O29          C31   1.293       .  A
O30          C31   1.279       .  A
C31        C1117   1.497       .  S
O32         Zr33   2.439       .  S
O32          H61   0.990       .  S
Zr33         O36   2.437       .  S
Zr33         O37   2.439       .  S
Zr33         O38   2.405       .  S
O34          C39   1.285       .  A
O35          H52   0.990       .  S
O35          H67   0.990       .  S
O36          H53   0.990       .  S
O37          H57   0.990       .  S
O37          H66   0.990       .  S
O38          C39   1.280       .  A
C39        C1060   1.480       .  S
O40          H59   0.990       .  S
O40          H63   0.990       .  S
O41          H55   0.990       .  S
O41          H62   0.990       .  S
O42          C46   1.283       .  A
O43          C46   1.290       .  A
O44          H54   0.990       .  S
O45          H58   0.990       .  S
C46        C1072   1.492       .  S
Zr69         O70   2.444       .  S
Zr69         O71   2.427       .  S
Zr69         O72   2.438       .  S
Zr69         O75   2.410       .  S
Zr69         O77   2.381       .  S
Zr69         O78   2.384       .  S
Zr69         O79   2.402       .  S
Zr69         O80   2.399       .  S
O70         H126   0.990       .  S
O70         H134   0.991       .  S
O71          C91   1.283       .  A
O72          C93   1.283       .  A
O73         Zr83   2.468       .  S
O73          C92   1.291       .  A
O74         Zr82   2.430       .  S
O74          C93   1.283       .  A
O75          C92   1.280       .  A
O76         Zr84   2.397       .  S
O76          C91   1.276       .  A
O77         Zr82   2.408       .  S
O77         Zr84   2.385       .  S
O78         Zr83   2.397       .  S
O78         Zr84   2.377       .  S
O78         H113   0.966       .  S
O79         Zr82   2.410       .  S
O79         Zr99   2.370       .  S
O79         H116   0.964       .  S
O80         Zr83   2.397       .  S
O80         Zr99   2.383       .  S
Zr81        O106   2.441       .  S
Zr81        O100   2.435       .  S
Zr81        O108   2.395       .  S
Zr81         O96   2.414       .  S
Zr81         O87   2.395       .  S
Zr81         O88   2.393       .  S
Zr81         O89   2.367       .  S
Zr81         O90   2.382       .  S
Zr82        O101   2.435       .  S
Zr82         O94   2.436       .  S
Zr82         O95   2.463       .  S
Zr82         O88   2.385       .  S
Zr82         O89   2.389       .  S
Zr83         O85   2.435       .  S
Zr83        O107   2.438       .  S
Zr83        O109   2.472       .  S
Zr83         O87   2.390       .  S
Zr83         O90   2.389       .  S
Zr84        O110   2.435       .  S
Zr84        O111   2.438       .  S
Zr84         O86   2.438       .  S
Zr84         O87   2.386       .  S
Zr84         O88   2.385       .  S
O85         H122   0.990       .  S
O86         H117   0.990       .  S
O86         H131   0.990       .  S
O88         H114   0.965       .  S
O89         Zr99   2.382       .  S
O90         Zr99   2.371       .  S
O90         H115   0.966       .  S
C91        C1012   1.477       .  S
C92        C1108   1.485       .  S
C93        C1000   1.463       .  S
O94         H130   0.990       .  S
O95          C97   1.290       .  A
O96          C97   1.282       .  A
C97         C985   1.483       .  S
O98         Zr99   2.440       .  S
O98         H127   0.990       .  S
Zr99        O102   2.437       .  S
Zr99        O103   2.439       .  S
Zr99        O104   2.394       .  S
O100        C105   1.285       .  A
O101        H118   0.990       .  S
O101        H133   0.990       .  S
O102        H119   0.990       .  S
O103        H123   0.990       .  S
O103        H132   0.990       .  S
O104        C105   1.278       .  A
C105        C964   1.479       .  S
O106        H125   0.990       .  S
O106        H129   0.990       .  S
O107        H121   0.990       .  S
O107        H128   0.990       .  S
O108        C112   1.278       .  A
O109        C112   1.293       .  A
O110        H120   0.990       .  S
O111        H124   0.990       .  S
C112        C973   1.492       .  S
Zr135       O136   2.442       .  S
Zr135       O137   2.466       .  S
Zr135       O138   2.445       .  S
Zr135       O141   2.426       .  S
Zr135       O143   2.374       .  S
Zr135       O144   2.385       .  S
Zr135       O145   2.415       .  S
Zr135       O146   2.408       .  S
O136        H192   0.990       .  S
O136        H200   0.991       .  S
O137        C157   1.288       .  A
O138        C159   1.285       .  A
O139       Zr149   2.447       .  S
O139        C158   1.287       .  A
O140       Zr148   2.460       .  S
O140        C159   1.288       .  A
O141        C158   1.284       .  A
O142       Zr150   2.415       .  S
O142        C157   1.279       .  A
O143       Zr148   2.404       .  S
O143       Zr150   2.386       .  S
O144       Zr149   2.404       .  S
O144       Zr150   2.377       .  S
O144        H179   0.966       .  S
O145       Zr148   2.400       .  S
O145       Zr165   2.400       .  S
O145        H182   0.965       .  S
O146       Zr149   2.391       .  S
O146       Zr165   2.393       .  S
Zr147       O172   2.452       .  S
Zr147       O166   2.450       .  S
Zr147       O174   2.448       .  S
Zr147       O162   2.445       .  S
Zr147       O153   2.404       .  S
Zr147       O154   2.409       .  S
Zr147       O155   2.384       .  S
Zr147       O156   2.381       .  S
Zr148       O167   2.435       .  S
Zr148       O160   2.435       .  S
Zr148       O161   2.440       .  S
Zr148       O154   2.406       .  S
Zr148       O155   2.401       .  S
Zr149       O151   2.435       .  S
Zr149       O173   2.438       .  S
Zr149       O175   2.452       .  S
Zr149       O153   2.391       .  S
Zr149       O156   2.394       .  S
Zr150       O176   2.435       .  S
Zr150       O177   2.435       .  S
Zr150       O152   2.437       .  S
Zr150       O153   2.394       .  S
Zr150       O154   2.388       .  S
O151        H188   0.990       .  S
O152        H183   0.990       .  S
O152        H197   0.990       .  S
O154        H180   0.965       .  S
O155       Zr165   2.376       .  S
O156       Zr165   2.377       .  S
O156        H181   0.966       .  S
C157        C925   1.504       .  S
C158        C901   1.490       .  S
C159        C916   1.496       .  S
O160        H196   0.990       .  S
O161        C163   1.287       .  A
O162        C163   1.287       .  A
C163        C949   1.484       .  S
O164       Zr165   2.439       .  S
O164        H193   0.990       .  S
Zr165       O168   2.437       .  S
Zr165       O169   2.439       .  S
Zr165       O170   2.433       .  S
O166        C171   1.288       .  A
O167        H184   0.990       .  S
O167        H199   0.990       .  S
O168        H185   0.990       .  S
O169        H189   0.990       .  S
O169        H198   0.990       .  S
O170        C171   1.284       .  A
C171       C1093   1.497       .  S
O172        H191   0.990       .  S
O172        H195   0.990       .  S
O173        H187   0.990       .  S
O173        H194   0.990       .  S
O174        C178   1.288       .  A
O175        C178   1.289       .  A
O176        H186   0.990       .  S
O177        H190   0.990       .  S
C178        C940   1.495       .  S
Zr201       O202   2.440       .  S
Zr201       O203   2.466       .  S
Zr201       O204   2.427       .  S
Zr201       O207   2.435       .  S
Zr201       O209   2.375       .  S
Zr201       O210   2.380       .  S
Zr201       O211   2.419       .  S
Zr201       O212   2.405       .  S
O202        H258   0.990       .  S
O202        H266   0.990       .  S
O203        C223   1.287       .  A
O204        C225   1.283       .  A
O205       Zr215   2.444       .  S
O205        C224   1.287       .  A
O206       Zr214   2.462       .  S
O206        C225   1.288       .  A
O207        C224   1.285       .  A
O208       Zr216   2.423       .  S
O208        C223   1.282       .  A
O209       Zr214   2.405       .  S
O209       Zr216   2.383       .  S
O210       Zr215   2.405       .  S
O210       Zr216   2.378       .  S
O210        H245   0.966       .  S
O211       Zr214   2.403       .  S
O211       Zr231   2.393       .  S
O211        H248   0.964       .  S
O212       Zr215   2.388       .  S
O212       Zr231   2.394       .  S
Zr213       O238   2.453       .  S
Zr213       O232   2.458       .  S
Zr213       O240   2.439       .  S
Zr213       O228   2.439       .  S
Zr213       O219   2.403       .  S
Zr213       O220   2.410       .  S
Zr213       O221   2.381       .  S
Zr213       O222   2.381       .  S
Zr214       O233   2.435       .  S
Zr214       O226   2.435       .  S
Zr214       O227   2.446       .  S
Zr214       O220   2.405       .  S
Zr214       O221   2.400       .  S
Zr215       O217   2.436       .  S
Zr215       O239   2.438       .  S
Zr215       O241   2.447       .  S
Zr215       O219   2.391       .  S
Zr215       O222   2.395       .  S
Zr216       O242   2.436       .  S
Zr216       O243   2.435       .  S
Zr216       O218   2.436       .  S
Zr216       O219   2.393       .  S
Zr216       O220   2.397       .  S
O217        H254   0.990       .  S
O218        H249   0.990       .  S
O218        H263   0.990       .  S
O220        H246   0.966       .  S
O221       Zr231   2.374       .  S
O222       Zr231   2.377       .  S
O222        H247   0.966       .  S
C223       C1081   1.499       .  S
C224        C877   1.494       .  S
C225        C889   1.496       .  S
O226        H262   0.990       .  S
O227        C229   1.288       .  A
O228        C229   1.286       .  A
C229        C853   1.484       .  S
O230       Zr231   2.440       .  S
O230        H259   0.990       .  S
Zr231       O234   2.437       .  S
Zr231       O235   2.439       .  S
Zr231       O236   2.428       .  S
O232        C237   1.289       .  A
O233        H250   0.990       .  S
O233        H265   0.990       .  S
O234        H251   0.990       .  S
O235        H255   0.990       .  S
O235        H264   0.990       .  S
O236        C237   1.283       .  A
C237        C868   1.502       .  S
O238        H257   0.990       .  S
O238        H261   0.990       .  S
O239        H253   0.990       .  S
O239        H260   0.990       .  S
O240        C244   1.287       .  A
O241        C244   1.288       .  A
O242        H252   0.990       .  S
O243        H256   0.990       .  S
C244        C844   1.499       .  S
C267        C268   1.370       .  D
C267        C880   1.499   1_556  S
C267       C1069   1.494   1_566  S
C268        C817   1.484   1_565  S
C268        C829   1.486       .  S
C269        C270   1.348   1_455  D
C269        C805   1.468       .  S
C269       C1057   1.478   1_556  S
C270        C793   1.476       .  S
C270       C1009   1.470   1_556  S
C271        C272   1.380   1_545  D
C271        C781   1.487       .  S
C271        C997   1.534   1_556  S
C272        C769   1.496       .  S
C272        C952   1.489   1_556  S
C273        C274   1.371   1_655  D
C273        C757   1.491       .  S
C273        C937   1.501   1_556  S
C274        C745   1.507       .  S
C274        C892   1.505   1_556  S
Zr275       O276   2.442       .  S
Zr275       O277   2.441       .  S
Zr275       O278   2.427       .  S
Zr275       O281   2.388       .  S
Zr275       O283   2.368       .  S
Zr275       O284   2.382       .  S
Zr275       O285   2.397       .  S
Zr275       O286   2.401       .  S
O276        H332   0.990       .  S
O276        H340   0.990       .  S
O277        C297   1.285       .  A
O278        C299   1.282       .  A
O279       Zr289   2.464       .  S
O279        C298   1.290       .  A
O280       Zr288   2.466       .  S
O280        C299   1.289       .  A
O281        C298   1.278       .  A
O282       Zr290   2.404       .  S
O282        C297   1.278       .  A
O283       Zr288   2.396       .  S
O283       Zr290   2.384       .  S
O284       Zr289   2.398       .  S
O284       Zr290   2.373       .  S
O284        H319   0.966       .  S
O285       Zr288   2.392       .  S
O285       Zr305   2.395       .  S
O285        H322   0.966       .  S
O286       Zr289   2.394       .  S
O286       Zr305   2.390       .  S
Zr287       O312   2.449       .  S
Zr287       O306   2.430       .  S
Zr287       O314   2.429       .  S
Zr287       O302   2.430       .  S
Zr287       O293   2.397       .  S
Zr287       O294   2.401       .  S
Zr287       O295   2.385       .  S
Zr287       O296   2.380       .  S
Zr288       O307   2.435       .  S
Zr288       O300   2.435       .  S
Zr288       O301   2.434       .  S
Zr288       O294   2.409       .  S
Zr288       O295   2.400       .  S
Zr289       O291   2.435       .  S
Zr289       O313   2.437       .  S
Zr289       O315   2.465       .  S
Zr289       O293   2.396       .  S
Zr289       O296   2.391       .  S
Zr290       O316   2.435       .  S
Zr290       O317   2.436       .  S
Zr290       O292   2.437       .  S
Zr290       O293   2.391       .  S
Zr290       O294   2.380       .  S
O291        H328   0.990       .  S
O292        H323   0.990       .  S
O292        H337   0.990       .  S
O294        H320   0.965       .  S
O295       Zr305   2.375       .  S
O296       Zr305   2.375       .  S
O296        H321   0.966       .  S
C297        C724   1.486       .  S
C298        C697   1.491       .  S
C299        C709   1.489       .  S
O300        H336   0.990       .  S
O301        C303   1.285       .  A
O302        C303   1.286       .  A
C303        C832   1.478       .  S
O304       Zr305   2.440       .  S
O304        H333   0.990       .  S
Zr305       O308   2.437       .  S
Zr305       O309   2.439       .  S
Zr305       O310   2.420       .  S
O306        C311   1.284       .  A
O307        H324   0.990       .  S
O307        H339   0.990       .  S
O308        H325   0.990       .  S
O309        H329   0.990       .  S
O309        H338   0.990       .  S
O310        C311   1.282       .  A
C311        C733   1.484       .  S
O312        H331   0.990       .  S
O312        H335   0.990       .  S
O313        H327   0.990       .  S
O313        H334   0.990       .  S
O314        C318   1.284       .  A
O315        C318   1.291       .  A
O316        H326   0.990       .  S
O317        H330   0.990       .  S
C318        C748   1.488       .  S
C341        C342   1.359   1_455  D
C341        C685   1.485   1_565  S
C341        C736   1.483       .  S
C342        C661   1.486       .  S
C342        C673   1.484   1_565  S
Zr343       O344   2.441       .  S
Zr343       O345   2.436       .  S
Zr343       O346   2.404       .  S
Zr343       O349   2.378       .  S
Zr343       O351   2.368       .  S
Zr343       O352   2.377       .  S
Zr343       O353   2.397       .  S
Zr343       O354   2.398       .  S
O344        H400   0.990       .  S
O344        H408   0.990       .  S
O345        C365   1.284       .  A
O346        C367   1.279       .  A
O347       Zr357   2.435       .  S
O347        C366   1.285       .  A
O348       Zr356   2.429       .  S
O348        C367   1.283       .  A
O349        C366   1.276       .  A
O350       Zr358   2.418       .  S
O350        C365   1.281       .  A
O351       Zr356   2.398       .  S
O351       Zr358   2.377       .  S
O352       Zr357   2.399       .  S
O352       Zr358   2.374       .  S
O352        H387   0.966       .  S
O353       Zr356   2.401       .  S
O353       Zr373   2.401       .  S
O353        H390   0.966       .  S
O354       Zr357   2.396       .  S
O354       Zr373   2.394       .  S
Zr355       O380   2.438       .  S
Zr355       O374   2.416       .  S
Zr355       O382   2.382       .  S
Zr355       O370   2.358       .  S
Zr355       O361   2.380       .  S
Zr355       O362   2.389       .  S
Zr355       O363   2.361       .  S
Zr355       O364   2.367       .  S
Zr356       O375   2.436       .  S
Zr356       O368   2.434       .  S
Zr356       O369   2.448       .  S
Zr356       O362   2.391       .  S
Zr356       O363   2.381       .  S
Zr357       O359   2.436       .  S
Zr357       O381   2.438       .  S
Zr357       O383   2.460       .  S
Zr357       O361   2.380       .  S
Zr357       O364   2.386       .  S
Zr358       O384   2.436       .  S
Zr358       O385   2.437       .  S
Zr358       O360   2.435       .  S
Zr358       O361   2.387       .  S
Zr358       O362   2.395       .  S
O359        H396   0.990       .  S
O360        H391   0.990       .  S
O360        H405   0.990       .  S
O362        H388   0.966       .  S
O363       Zr373   2.366       .  S
O364       Zr373   2.382       .  S
O364        H389   0.966       .  S
C365        C652   1.486       .  S
C366        C625   1.474       .  S
C367        C637   1.465       .  S
O368        H404   0.990       .  S
O369        C371   1.287       .  A
O370        C371   1.271       .  A
C371        C808   1.475       .  S
O372       Zr373   2.440       .  S
O372        H401   0.990       .  S
Zr373       O376   2.437       .  S
Zr373       O377   2.441       .  S
Zr373       O378   2.438       .  S
O374        C379   1.282       .  A
O375        H392   0.990       .  S
O375        H407   0.990       .  S
O376        H393   0.990       .  S
O377        H397   0.990       .  S
O377        H406   0.989       .  S
O378        C379   1.286       .  A
C379        C688   1.489       .  S
O380        H399   0.990       .  S
O380        H403   0.990       .  S
O381        H395   0.990       .  S
O381        H402   0.990       .  S
O382        C386   1.275       .  A
O383        C386   1.289       .  A
O384        H394   0.990       .  S
O385        H398   0.990       .  S
C386        C820   1.482       .  S
Zr409       O410   2.439       .  S
Zr409       O411   2.422       .  S
Zr409       O412   2.407       .  S
Zr409       O415   2.392       .  S
Zr409       O417   2.373       .  S
Zr409       O418   2.374       .  S
Zr409       O419   2.396       .  S
Zr409       O420   2.397       .  S
O410        H466   0.990       .  S
O410        H474   0.990       .  S
O411        C431   1.282       .  A
O412        C433   1.282       .  A
O413       Zr423   2.434       .  S
O413        C432   1.284       .  A
O414       Zr422   2.433       .  S
O414        C433   1.284       .  A
O415        C432   1.279       .  A
O416       Zr424   2.426       .  S
O416        C431   1.284       .  A
O417       Zr422   2.396       .  S
O417       Zr424   2.373       .  S
O418       Zr423   2.388       .  S
O418       Zr424   2.367       .  S
O418        H453   0.966       .  S
O419       Zr422   2.401       .  S
O419       Zr439   2.398       .  S
O419        H456   0.966       .  S
O420       Zr423   2.393       .  S
O420       Zr439   2.397       .  S
Zr421       O446   2.445       .  S
Zr421       O440   2.426       .  S
Zr421       O448   2.384       .  S
Zr421       O436   2.379       .  S
Zr421       O427   2.388       .  S
Zr421       O428   2.395       .  S
Zr421       O429   2.368       .  S
Zr421       O430   2.371       .  S
Zr422       O441   2.436       .  S
Zr422       O434   2.434       .  S
Zr422       O435   2.447       .  S
Zr422       O428   2.392       .  S
Zr422       O429   2.387       .  S
Zr423       O425   2.435       .  S
Zr423       O447   2.438       .  S
Zr423       O449   2.438       .  S
Zr423       O427   2.389       .  S
Zr423       O430   2.386       .  S
Zr424       O450   2.435       .  S
Zr424       O451   2.435       .  S
Zr424       O426   2.436       .  S
Zr424       O427   2.392       .  S
Zr424       O428   2.394       .  S
O425        H462   0.990       .  S
O426        H457   0.990       .  S
O426        H471   0.990       .  S
O428        H454   0.966       .  S
O429       Zr439   2.374       .  S
O430       Zr439   2.379       .  S
O430        H455   0.966       .  S
C431        C676   1.483       .  S
C432        C796   1.458       .  S
C433        C784   1.481       .  S
O434        H470   0.990       .  S
O435        C437   1.287       .  A
O436        C437   1.275       .  A
C437        C601   1.463       .  S
O438       Zr439   2.440       .  S
O438        H467   0.990       .  S
Zr439       O442   2.437       .  S
Zr439       O443   2.440       .  S
Zr439       O444   2.431       .  S
O440        C445   1.283       .  A
O441        H458   0.990       .  S
O441        H473   0.990       .  S
O442        H459   0.990       .  S
O443        H463   0.990       .  S
O443        H472   0.990       .  S
O444        C445   1.285       .  A
C445        C613   1.488       .  S
O446        H465   0.990       .  S
O446        H469   0.990       .  S
O447        H461   0.990       .  S
O447        H468   0.990       .  S
O448        C452   1.275       .  A
O449        C452   1.286       .  A
O450        H460   0.990       .  S
O451        H464   0.990       .  S
C452        C589   1.479       .  S
Zr475       O476   2.440       .  S
Zr475       O477   2.429       .  S
Zr475       O478   2.403       .  S
Zr475       O481   2.383       .  S
Zr475       O483   2.367       .  S
Zr475       O484   2.377       .  S
Zr475       O485   2.394       .  S
Zr475       O486   2.393       .  S
O476        H532   0.990       .  S
O476        H540   0.990       .  S
O477        C497   1.283       .  A
O478        C499   1.279       .  A
O479       Zr489   2.466       .  S
O479        C498   1.290       .  A
O480       Zr488   2.470       .  S
O480        C499   1.291       .  A
O481        C498   1.278       .  A
O482       Zr490   2.413       .  S
O482        C497   1.281       .  A
O483       Zr488   2.391       .  S
O483       Zr490   2.376       .  S
O484       Zr489   2.401       .  S
O484       Zr490   2.374       .  S
O484        H519   0.966       .  S
O485       Zr488   2.396       .  S
O485       Zr505   2.395       .  S
O485        H522   0.966       .  S
O486       Zr489   2.395       .  S
O486       Zr505   2.391       .  S
Zr487       O512   2.449       .  S
Zr487       O506   2.438       .  S
Zr487       O514   2.410       .  S
Zr487       O502   2.403       .  S
Zr487       O493   2.393       .  S
Zr487       O494   2.399       .  S
Zr487       O495   2.378       .  S
Zr487       O496   2.375       .  S
Zr488       O507   2.435       .  S
Zr488       O500   2.434       .  S
Zr488       O501   2.446       .  S
Zr488       O494   2.405       .  S
Zr488       O495   2.399       .  S
Zr489       O491   2.435       .  S
Zr489       O513   2.438       .  S
Zr489       O515   2.470       .  S
Zr489       O493   2.392       .  S
Zr489       O496   2.394       .  S
Zr490       O516   2.435       .  S
Zr490       O517   2.435       .  S
Zr490       O492   2.436       .  S
Zr490       O493   2.391       .  S
Zr490       O494   2.385       .  S
O491        H528   0.990       .  S
O492        H523   0.990       .  S
O492        H537   0.990       .  S
O494        H520   0.965       .  S
O495       Zr505   2.376       .  S
O496       Zr505   2.382       .  S
O496        H521   0.966       .  S
C497        C664   1.482       .  S
C498        C772   1.489       .  S
C499        C760   1.496       .  S
O500        H536   0.990       .  S
O501        C503   1.287       .  A
O502        C503   1.281       .  A
C503        C565   1.477       .  S
O504       Zr505   2.440       .  S
O504        H533   0.990       .  S
Zr505       O508   2.437       .  S
Zr505       O509   2.440       .  S
Zr505       O510   2.423       .  S
O506        C511   1.286       .  A
O507        H524   0.990       .  S
O507        H539   0.990       .  S
O508        H525   0.990       .  S
O509        H529   0.990       .  S
O509        H538   0.990       .  S
O510        C511   1.282       .  A
C511        C577   1.479       .  S
O512        H531   0.990       .  S
O512        H535   0.990       .  S
O513        H527   0.990       .  S
O513        H534   0.990       .  S
O514        C518   1.280       .  A
O515        C518   1.293       .  A
O516        H526   0.990       .  S
O517        H530   0.990       .  S
C518        C553   1.500       .  S
C541        C542   1.368       .  D
C541        C616   1.486       .  S
C541        C649   1.492       .  S
C542        C580   1.507       .  S
C542        C721   1.484       .  S
C543        C544   1.370       .  D
C543        C988   1.489       .  S
C543       C1048   1.495       .  S
C544        C865   1.497       .  S
C544        C928   1.493       .  S
C545        C546   1.370       .  D
C545        C568   1.484       .  S
C545        C592   1.483       .  S
C546        C904   1.502       .  S
C546        C976   1.487       .  S
C547        C548   1.378       .  D
C547        C556   1.499       .  S
C547        C712   1.501       .  S
C548        C841   1.499       .  S
C548        C913   1.501       .  S
C549        C550   1.362       .  D
C549        C640   1.481       .  S
C549       C1024   1.484       .  S
C550        C700   1.494       .  S
C550        C856   1.494       .  S
C551        C552   1.354       .  D
C551        C961   1.471       .  S
C551       C1036   1.484       .  S
C552        C604   1.472       .  S
C552        C628   1.472       .  S
C553        C554   1.407       .  A
C553        C558   1.421       .  A
C554        C555   1.406       .  A
C554        H559   1.083       .  S
C555        C556   1.413       .  A
C555        O560   1.371       .  S
C556        C557   1.399       .  A
C557        C558   1.399       .  A
C557        H561   1.080       .  S
C558        O562   1.371       .  S
O560        H564   0.992       .  S
O562        H563   0.992       .  S
C565        C566   1.401       .  A
C565        C570   1.412       .  A
C566        C567   1.389       .  A
C566        H571   1.084       .  S
C567        C568   1.412       .  A
C567        O572   1.374       .  S
C568        C569   1.403       .  A
C569        C570   1.406       .  A
C569        H573   1.083       .  S
C570        O574   1.371       .  S
O572        H576   0.992       .  S
O574        H575   0.992       .  S
C577        C578   1.399       .  A
C577        C582   1.408       .  A
C578        C579   1.400       .  A
C578        H583   1.084       .  S
C579        C580   1.417       .  A
C579        O584   1.370       .  S
C580        C581   1.408       .  A
C581        C582   1.402       .  A
C581        H585   1.080       .  S
C582        O586   1.371       .  S
O584        H588   0.993       .  S
O586        H587   0.992       .  S
C589        C590   1.406       .  A
C589        C594   1.417       .  A
C590        C591   1.401       .  A
C590        H595   1.083       .  S
C591        C592   1.405       .  A
C591        O596   1.372       .  S
C592        C593   1.397       .  A
C593        C594   1.386       .  A
C593        H597   1.081       .  S
C594        O598   1.373       .  S
O596        H600   0.992       .  S
O598        H599   0.992       .  S
C601        C602   1.403       .  A
C601        C606   1.409       .  A
C602        C603   1.402       .  A
C602        H607   1.084       .  S
C603        C604   1.405       .  A
C603        O608   1.371       .  S
C604        C605   1.399       .  A
C605        C606   1.388       .  A
C605        H609   1.084       .  S
C606        O610   1.373       .  S
O608        H612   0.992       .  S
O610        H611   0.992       .  S
C613        C614   1.405       .  A
C613        C618   1.416       .  A
C614        C615   1.395       .  A
C614        H619   1.083       .  S
C615        C616   1.407       .  A
C615        O620   1.372       .  S
C616        C617   1.401       .  A
C617        C618   1.405       .  A
C617        H621   1.083       .  S
C618        O622   1.371       .  S
O620        H624   0.992       .  S
O622        H623   0.992       .  S
C625        C626   1.409       .  A
C625        C630   1.409       .  A
C626        C627   1.387       .  A
C626        H631   1.083       .  S
C627        C628   1.401       .  A
C627        O632   1.373       .  S
C628        C629   1.403       .  A
C629        C630   1.396       .  A
C629        H633   1.083       .  S
C630        O634   1.372       .  S
O632        H636   0.992       .  S
O634        H635   0.992       .  S
C637        C638   1.403       .  A
C637        C642   1.407       .  A
C638        C639   1.395       .  A
C638        H643   1.084       .  S
C639        C640   1.407       .  A
C639        O644   1.373       .  S
C640        C641   1.401       .  A
C641        C642   1.396       .  A
C641        H645   1.084       .  S
C642        O646   1.371       .  S
O644        H648   0.992       .  S
O646        H647   0.991       .  S
C649        C650   1.402       .  A
C649        C654   1.407       .  A
C650        C651   1.398       .  A
C650        H655   1.083       .  S
C651        C652   1.414       .  A
C651        O656   1.372       .  S
C652        C653   1.407       .  A
C653        C654   1.402       .  A
C653        H657   1.083       .  S
C654        O658   1.372       .  S
O656        H660   0.992       .  S
O658        H659   0.992       .  S
C661        C662   1.404       .  A
C661        C666   1.406       .  A
C662        C663   1.399       .  A
C662        H667   1.084       .  S
C663        C664   1.410       .  A
C663        O668   1.372       .  S
C664        C665   1.407       .  A
C665        C666   1.398       .  A
C665        H669   1.084       .  S
C666        O670   1.372       .  S
O668        H672   0.992       .  S
O670        H671   0.992       .  S
C673        C674   1.401       .  A
C673        C678   1.407       .  A
C674        C675   1.405       .  A
C674        H679   1.083       .  S
C675        C676   1.415       .  A
C675        O680   1.371       .  S
C676        C677   1.403       .  A
C677        C678   1.393       .  A
C677        H681   1.084       .  S
C678        O682   1.372   1_545  S
O680        H684   0.992       .  S
O682        H683   0.992       .  S
C685        C686   1.401       .  A
C685        C690   1.406       .  A
C686        C687   1.398       .  A
C686        H691   1.084       .  S
C687        C688   1.415       .  A
C687        O692   1.372       .  S
C688        C689   1.409       .  A
C689        C690   1.402       .  A
C689        H693   1.083       .  S
C690        O694   1.371       .  S
O692        H696   0.992       .  S
O694        H695   0.992   1_455  S
C697        C698   1.410       .  A
C697        C702   1.411       .  A
C698        C699   1.389       .  A
C698        H703   1.082       .  S
C699        C700   1.403       .  A
C699        O704   1.372       .  S
C700        C701   1.409       .  A
C701        C702   1.407       .  A
C701        H705   1.083       .  S
C702        O706   1.371       .  S
O704        H708   0.992       .  S
O706        H707   0.992       .  S
C709        C710   1.402       .  A
C709        C714   1.413       .  A
C710        C711   1.398       .  A
C710        H715   1.084       .  S
C711        C712   1.411       .  A
C711        O716   1.372       .  S
C712        C713   1.407       .  A
C713        C714   1.414       .  A
C713        H717   1.083       .  S
C714        O718   1.371       .  S
O716        H720   0.992       .  S
O718        H719   0.992       .  S
C721        C722   1.396       .  A
C721        C726   1.406       .  A
C722        C723   1.393       .  A
C722        H727   1.084       .  S
C723        C724   1.417       .  A
C723        O728   1.372       .  S
C724        C725   1.408       .  A
C725        C726   1.405       .  A
C725        H729   1.083       .  S
C726        O730   1.373       .  S
O728        H732   0.992       .  S
O730        H731   0.992       .  S
C733        C734   1.410       .  A
C733        C738   1.412       .  A
C734        C735   1.405       .  A
C734        H739   1.083       .  S
C735        C736   1.405       .  A
C735        O740   1.371       .  S
C736        C737   1.399       .  A
C737        C738   1.391       .  A
C737        H741   1.083       .  S
C738        O742   1.372       .  S
O740        H744   0.992       .  S
O742        H743   0.992       .  S
C745        C746   1.407       .  A
C745        C750   1.410       .  A
C746        C747   1.403       .  A
C746        H751   1.082       .  S
C747        C748   1.411       .  A
C747        O752   1.372       .  S
C748        C749   1.406       .  A
C749        C750   1.408       .  A
C749        H753   1.083       .  S
C750        O754   1.371       .  S
O752        H756   0.992       .  S
O754        H755   0.992       .  S
C757        C758   1.396       .  A
C757        C762   1.408       .  A
C758        C759   1.394       .  A
C758        H763   1.083       .  S
C759        C760   1.419       .  A
C759        O764   1.373       .  S
C760        C761   1.410       .  A
C761        C762   1.411       .  A
C761        H765   1.083       .  S
C762        O766   1.371       .  S
O764        H768   0.992       .  S
O766        H767   0.992       .  S
C769        C770   1.408       .  A
C769        C774   1.403       .  A
C770        C771   1.409       .  A
C770        H775   1.083       .  S
C771        C772   1.411       .  A
C771        O776   1.371       .  S
C772        C773   1.409       .  A
C773        C774   1.388       .  A
C773        H777   1.083       .  S
C774        O778   1.371       .  S
O776        H780   0.992       .  S
O778        H779   0.992       .  S
C781        C782   1.403       .  A
C781        C786   1.403       .  A
C782        C783   1.402       .  A
C782        H787   1.083       .  S
C783        C784   1.415       .  A
C783        O788   1.371       .  S
C784        C785   1.407       .  A
C785        C786   1.389       .  A
C785        H789   1.084       .  S
C786        O790   1.372       .  S
O788        H792   0.992       .  S
O790        H791   0.992       .  S
C793        C794   1.403       .  A
C793        C798   1.405       .  A
C794        C795   1.396       .  A
C794        H799   1.084       .  S
C795        C796   1.403       .  A
C795        O800   1.371       .  S
C796        C797   1.401       .  A
C797        C798   1.394       .  A
C797        H801   1.083       .  S
C798        O802   1.373       .  S
O800        H804   0.992       .  S
O802        H803   0.992       .  S
C805        C806   1.390       .  A
C805        C810   1.405       .  A
C806        C807   1.381       .  A
C806        H811   1.084       .  S
C807        C808   1.420       .  A
C807        O812   1.374       .  S
C808        C809   1.406       .  A
C809        C810   1.401       .  A
C809        H813   1.083       .  S
C810        O814   1.371       .  S
O812        H816   0.993       .  S
O814        H815   0.992       .  S
C817        C818   1.395       .  A
C817        C822   1.409       .  A
C818        C819   1.387       .  A
C818        H823   1.081       .  S
C819        C820   1.418       .  A
C819        O824   1.372       .  S
C820        C821   1.405       .  A
C821        C822   1.402       .  A
C821        H825   1.083       .  S
C822        O826   1.371       .  S
O824        H828   0.992       .  S
O826        H827   0.992       .  S
C829        C830   1.401       .  A
C829        C834   1.413       .  A
C830        C831   1.405       .  A
C830        H835   1.083       .  S
C831        C832   1.414       .  A
C831        O836   1.371       .  S
C832        C833   1.399       .  A
C833        C834   1.393       .  A
C833        H837   1.084       .  S
C834        O838   1.374       .  S
O836        H840   0.992       .  S
O838        H839   0.992       .  S
C841        C842   1.407       .  A
C841        C846   1.409       .  A
C842        C843   1.405       .  A
C842        H847   1.083       .  S
C843        C844   1.414       .  A
C843        O848   1.371       .  S
C844        C845   1.409       .  A
C845        C846   1.404       .  A
C845        H849   1.083       .  S
C846        O850   1.371       .  S
O848        H852   0.992       .  S
O850        H851   0.992       .  S
C853        C854   1.404       .  A
C853        C858   1.411       .  A
C854        C855   1.401       .  A
C854        H859   1.084       .  S
C855        C856   1.407       .  A
C855        O860   1.372       .  S
C856        C857   1.407       .  A
C857        C858   1.405       .  A
C857        H861   1.083       .  S
C858        O862   1.371       .  S
O860        H864   0.992       .  S
O862        H863   0.992       .  S
C865        C866   1.405       .  A
C865        C870   1.404       .  A
C866        C867   1.406       .  A
C866        H871   1.082       .  S
C867        C868   1.414       .  A
C867        O872   1.371       .  S
C868        C869   1.413       .  A
C869        C870   1.405       .  A
C869        H873   1.083       .  S
C870        O874   1.371       .  S
O872        H876   0.992       .  S
O874        H875   0.992       .  S
C877        C878   1.408       .  A
C877        C882   1.414       .  A
C878        C879   1.406       .  A
C878        H883   1.083       .  S
C879        C880   1.410       .  A
C879        O884   1.372       .  S
C880        C881   1.402       .  A
C881        C882   1.394       .  A
C881        H885   1.075   1_554  S
C882        O886   1.370       .  S
O884        H888   0.992       .  S
O886        H887   0.992       .  S
C889        C890   1.406       .  A
C889        C894   1.413       .  A
C890        C891   1.391       .  A
C890        H895   1.082       .  S
C891        C892   1.409       .  A
C891        O896   1.371   1_554  S
C892        C893   1.412       .  A
C893        C894   1.413       .  A
C893        H897   1.083       .  S
C894        O898   1.371       .  S
O896        H900   0.992       .  S
O898        H899   0.992       .  S
C901        C902   1.405       .  A
C901        C906   1.413       .  A
C902        C903   1.406       .  A
C902        H907   1.083       .  S
C903        C904   1.414       .  A
C903        O908   1.372       .  S
C904        C905   1.402       .  A
C905        C906   1.394       .  A
C905        H909   1.071       .  S
C906        O910   1.371       .  S
O908        H912   0.992       .  S
O910        H911   0.992       .  S
C913        C914   1.407       .  A
C913        C918   1.409       .  A
C914        C915   1.413       .  A
C914        H919   1.083       .  S
C915        C916   1.415       .  A
C915        O920   1.371       .  S
C916        C917   1.405       .  A
C917        C918   1.400       .  A
C917        H921   1.084       .  S
C918        O922   1.372       .  S
O920        H924   0.992       .  S
O922        H923   0.992       .  S
C925        C926   1.411       .  A
C925        C930   1.420       .  A
C926        C927   1.408       .  A
C926        H931   1.083       .  S
C927        C928   1.408       .  A
C927        O932   1.370       .  S
C928        C929   1.398       .  A
C929        C930   1.402       .  A
C929        H933   1.083       .  S
C930        O934   1.372       .  S
O932        H936   0.992       .  S
O934        H935   0.992       .  S
C937        C938   1.404       .  A
C937        C942   1.410       .  A
C938        C939   1.406       .  A
C938        H943   1.084       .  S
C939        C940   1.413       .  A
C939        O944   1.371       .  S
C940        C941   1.408       .  A
C941        C942   1.408       .  A
C941        H945   1.083       .  S
C942        O946   1.372       .  S
O944        H948   0.992       .  S
O946        H947   0.992   1_655  S
C949        C950   1.407       .  A
C949        C954   1.410       .  A
C950        C951   1.403       .  A
C950        H955   1.084       .  S
C951        C952   1.406       .  A
C951        O956   1.372       .  S
C952        C953   1.407       .  A
C953        C954   1.401       .  A
C953        H957   1.083       .  S
C954        O958   1.371       .  S
O956        H960   0.992       .  S
O958        H959   0.992       .  S
C961        C962   1.403       .  A
C961        C966   1.397       .  A
C962        C963   1.403       .  A
C962        H967   1.084       .  S
C963        C964   1.412       .  A
C963        O968   1.372       .  S
C964        C965   1.409       .  A
C965        C966   1.389       .  A
C965        H969   1.083       .  S
C966        O970   1.373       .  S
O968        H972   0.992       .  S
O970        H971   0.991       .  S
C973        C974   1.410       .  A
C973        C978   1.421       .  A
C974        C975   1.407       .  A
C974        H979   1.083       .  S
C975        C976   1.406       .  A
C975        O980   1.370       .  S
C976        C977   1.394       .  A
C977        C978   1.393       .  A
C977        H981   1.085       .  S
C978        O982   1.375       .  S
O980        H984   0.992       .  S
O982        H983   0.992       .  S
C985        C986   1.403       .  A
C985        C990   1.412       .  A
C986        C987   1.397       .  A
C986        H991   1.084       .  S
C987        C988   1.407       .  A
C987        O992   1.372       .  S
C988        C989   1.404       .  A
C989        C990   1.407       .  A
C989        H993   1.083       .  S
C990        O994   1.371       .  S
O992        H996   0.992       .  S
O994        H995   0.992       .  S
C997        C998   1.412       .  A
C997       C1002   1.435   1_554  A
C998        C999   1.398       .  A
C998       H1003   1.071       .  S
C999       C1000   1.402       .  A
C999       O1004   1.372       .  S
C1000      C1001   1.387       .  A
C1001      C1002   1.396   1_554  A
C1001      H1005   1.084       .  S
C1002      O1006   1.369       .  S
O1004      H1008   0.992       .  S
O1006      H1007   0.992       .  S
C1009      C1010   1.395       .  A
C1009      C1014   1.405       .  A
C1010      C1011   1.395       .  A
C1010      H1015   1.084       .  S
C1011      C1012   1.417       .  A
C1011      O1016   1.372       .  S
C1012      C1013   1.404       .  A
C1013      C1014   1.393       .  A
C1013      H1017   1.083       .  S
C1014      O1018   1.371   1_554  S
O1016      H1020   0.992       .  S
O1018      H1019   0.992       .  S
C1021      C1022   1.408       .  A
C1021      C1026   1.411       .  A
C1022      C1023   1.406       .  A
C1022      H1027   1.083       .  S
C1023      C1024   1.405       .  A
C1023      O1028   1.371       .  S
C1024      C1025   1.402       .  A
C1025      C1026   1.393       .  A
C1025      H1029   1.083       .  S
C1026      O1030   1.374       .  S
O1028      H1032   0.992       .  S
O1030      H1031   0.992       .  S
C1033      C1034   1.408       .  A
C1033      C1038   1.411       .  A
C1034      C1035   1.398       .  A
C1034      H1039   1.083       .  S
C1035      C1036   1.404       .  A
C1035      O1040   1.373       .  S
C1036      C1037   1.403       .  A
C1037      C1038   1.397       .  A
C1037      H1041   1.083       .  S
C1038      O1042   1.372       .  S
O1040      H1044   0.992       .  S
O1042      H1043   0.992       .  S
C1045      C1046   1.405       .  A
C1045      C1050   1.421       .  A
C1046      C1047   1.406       .  A
C1046      H1051   1.083       .  S
C1047      C1048   1.413       .  A
C1047      O1052   1.372       .  S
C1048      C1049   1.397       .  A
C1049      C1050   1.395       .  A
C1049      H1053   1.082       .  S
C1050      O1054   1.369       .  S
O1052      H1056   0.992       .  S
O1054      H1055   0.992       .  S
C1057      C1058   1.404       .  A
C1057      C1062   1.401       .  A
C1058      C1059   1.402       .  A
C1058      H1063   1.083       .  S
C1059      C1060   1.412       .  A
C1059      O1064   1.371       .  S
C1060      C1061   1.407       .  A
C1061      C1062   1.392       .  A
C1061      H1065   1.084       .  S
C1062      O1066   1.372   1_554  S
O1064      H1068   0.992       .  S
O1066      H1067   0.992       .  S
C1069      C1070   1.407       .  A
C1069      C1074   1.405       .  A
C1070      C1071   1.411       .  A
C1070      H1075   1.083       .  S
C1071      C1072   1.414       .  A
C1071      O1076   1.371       .  S
C1072      C1073   1.407       .  A
C1073      C1074   1.390       .  A
C1073      H1077   1.082       .  S
C1074      O1078   1.372       .  S
O1076      H1080   0.992       .  S
O1078      H1079   0.992   1_545  S
C1081      C1082   1.405       .  A
C1081      C1086   1.415       .  A
C1082      C1083   1.401       .  A
C1082      H1087   1.084       .  S
C1083      C1084   1.410       .  A
C1083      O1088   1.371       .  S
C1084      C1085   1.409       .  A
C1085      C1086   1.413       .  A
C1085      H1089   1.083       .  S
C1086      O1090   1.371       .  S
O1088      H1092   0.992       .  S
O1090      H1091   0.992       .  S
C1093      C1094   1.412       .  A
C1093      C1098   1.412       .  A
C1094      C1095   1.408       .  A
C1094      H1099   1.083       .  S
C1095      C1096   1.406       .  A
C1095      O1100   1.371       .  S
C1096      C1097   1.406       .  A
C1097      C1098   1.402       .  A
C1097      H1101   1.081       .  S
C1098      O1102   1.372       .  S
O1100      H1104   0.992       .  S
O1102      H1103   0.992       .  S
C1105      C1106   1.406       .  A
C1105      C1110   1.406       .  A
C1106      C1107   1.407       .  A
C1106      H1111   1.083       .  S
C1107      C1108   1.408       .  A
C1107      O1112   1.371       .  S
C1108      C1109   1.407       .  A
C1109      C1110   1.401       .  A
C1109      H1113   1.084       .  S
C1110      O1114   1.373       .  S
O1112      H1116   0.992       .  S
O1114      H1115   0.992       .  S
C1117      C1118   1.409       .  A
C1117      C1122   1.421       .  A
C1118      C1119   1.410       .  A
C1118      H1123   1.083       .  S
C1119      C1120   1.409       .  A
C1119      O1124   1.371       .  S
C1120      C1121   1.394       .  A
C1121      C1122   1.394       .  A
C1121      H1125   1.084       .  S
C1122      O1126   1.373       .  S
O1124      H1128   0.992       .  S
O1126      H1127   0.992       .  S
